<?xml version="1.0" encoding="UTF-8"?>

<!-- generated on Sat Jun 30 10:26:15 2018 by SUMO duarouter Version svn
<?xml version="1.0" encoding="UTF-8"?>

<configuration xmlns:xsi="http://www.w3.org/2001/XMLSchema-instance" xsi:noNamespaceSchemaLocation="http://sumo.dlr.de/xsd/duarouterConfiguration.xsd">

    <input>
        <net-file value="osm.net.xml"/>
        <trip-files value="osm.passenger.trips.xml"/>
    </input>

    <output>
        <output-file value="osm.passenger.rou.xml"/>
    </output>

    <processing>
        <ignore-errors value="true"/>
    </processing>

    <time>
        <begin value="0"/>
        <end value="3600.0"/>
    </time>

    <report>
        <no-warnings value="true"/>
        <no-step-log value="true"/>
    </report>

</configuration>
-->

<routes xmlns:xsi="http://www.w3.org/2001/XMLSchema-instance" xsi:noNamespaceSchemaLocation="http://sumo.dlr.de/xsd/routes_file.xsd">
    <vType id="passenger" vClass="passenger"/>
    <vehicle id="veh0" type="passenger" depart="0.00" departLane="best">
        <route edges="46538375#0 46538375#0-AddedOffRampEdge 5671276#0 5671276#6 5671276#9 5671276#11 5671276#12 46482602#2 46482602#3 46482602#4 46482602#5 46482602#6 46482602#7 46482602#8 46482602#9 46482602#10 397795463 569345542#1 397795464#0 397795464#1 569345544 -167922076 -167922072#2 -167922072#1 -167922072#0 -511699183#1 -511699183#0"/>
    </vehicle>
    <vehicle id="veh1" type="passenger" depart="1.03" departLane="best">
        <route edges="226041027#5 226041026 464516471#0 464516471#1 464516471#2 464516471#3 464516471#4 464516471#5 464516471#6 464516471#7 464516471#8 464516471#9 569345538#0 569345538#1 569345538#2 569345539 569345541#0 569345541#1 196116976#8"/>
    </vehicle>
    <vehicle id="veh2" type="passenger" depart="2.06" departLane="best">
        <route edges="525729008#0 125480075 194926851#0 194926851#1 194926851#2 194926851#3 194926851#4 194926851#5 194926851#6 420907906#0 420907906#1 420907906#2 46538375#7 46538375#8"/>
    </vehicle>
    <vehicle id="veh3" type="passenger" depart="3.09" departLane="best">
        <route edges="5671709#1 420905130#0 420905130#2 382740985#3 382740985#6 588157337#0 569345540#0 46443656#0 46443656#2 196116976#12 167922074#0"/>
    </vehicle>
    <vehicle id="veh4" type="passenger" depart="4.11" departLane="best">
        <route edges="452322756#2 5671276#12 46482602#2 46482602#3 46482602#4 46482602#5 46482602#6 46482602#7 46482602#8 46482602#9 46482602#10 397795463 569345542#1 397795464#0 397795464#1 569345544 -167922076 -167922072#2 -167922072#1 -167922072#0 -511699183#1 -511699183#0"/>
    </vehicle>
    <vehicle id="veh5" type="passenger" depart="5.14" departLane="best">
        <route edges="196116976#0 46538375#8 46538375#9 382740985#6 588157337#0 569345540#0 569345540#3 167922071 483360105 397795463 569345542#1 397795464#0 226041027#5 226041026 464516471#0 464516471#1 464516471#2"/>
    </vehicle>
    <vehicle id="veh6" type="passenger" depart="6.17" departLane="best">
        <route edges="46538375#0-AddedOffRampEdge 5671276#0 5671276#6 5671276#9 5671276#11 5671276#12 46482602#2 46482602#3 46482602#4"/>
    </vehicle>
    <vehicle id="veh7" type="passenger" depart="7.20" departLane="best">
        <route edges="196116976#0 46538375#8 46538375#9 382740985#6 588157337#0 569345540#0 569345540#3 167922071 483360105 397795463 569345542#1 397795464#0 226041027#5 226041026 464516471#0 46522008#0"/>
    </vehicle>
    <vehicle id="veh8" type="passenger" depart="8.23" departLane="best">
        <route edges="5670197#0 5670197#2 194926854#4 125479721 542257430 195743345 -525729008#1 -167922076 -167922072#2 -167922072#1"/>
    </vehicle>
    <vehicle id="veh9" type="passenger" depart="9.26" departLane="best">
        <route edges="382740985#0 382740985#3 382740985#6 588157337#0 569345540#0 46443656#0 46443656#2 46443656#3 46443656#4 46443656#5 46443656#6 46443656#7 46443656#8 5671276#9 5671276#11 5671276#12 420907908#0 420907908#1 226041027#0 226041027#1 226041027#2 194926851#1"/>
    </vehicle>
    <vehicle id="veh10" type="passenger" depart="10.29" departLane="best">
        <route edges="167922074#1 167922071 483360105 397795463 569345542#1 397795464#0 397795464#1 569345544 -167922076 -167922072#2 167922072#2 167922076"/>
    </vehicle>
    <vehicle id="veh11" type="passenger" depart="11.32" departLane="best">
        <route edges="5671115#0 5671276#11 5671276#12 46482602#2 46482602#3 46482602#4 46482602#5 46482602#6 46482602#7 46482602#8 46482602#9 46482602#10 397795463 569345542#1 46522008#2 46522008#3 46522008#4"/>
    </vehicle>
    <vehicle id="veh12" type="passenger" depart="12.34" departLane="best">
        <route edges="5670197#0 5670197#2 194926854#4 125479721 542258060 569345546 500717410 542257982#0"/>
    </vehicle>
    <vehicle id="veh13" type="passenger" depart="13.37" departLane="best">
        <route edges="46482602#10 397795463 569345542#1 397795464#0 397795464#1 569345544 167922070 195743344 569345545 569345547#0"/>
    </vehicle>
    <vehicle id="veh14" type="passenger" depart="14.40" departLane="best">
        <route edges="420907906#1 420907906#2 46538375#7 46538375#8 46538375#9 382740985#6 588157337#0 569345540#0 46443656#0 46443656#2 46443656#3 46443656#4 46443656#5 46443656#6 46443656#7 46443656#8 5671276#9 5671276#11 5671276#12 46482602#2 46482602#3 46482602#4 46482602#5 46482602#6"/>
    </vehicle>
    <vehicle id="veh16" type="passenger" depart="16.46" departLane="best">
        <route edges="5671276#12 46482602#2 46482602#3 46482602#4 46482602#5 46482602#6 46482602#7 46482602#8 46482602#9 46482602#10 420494981#0 420494981#1 464516471#2 464516471#3 464516471#4 464516471#5 464516471#6 464516471#7 464516471#8 464516471#9 569345537#0 569345537#2 569345537#4 46521993"/>
    </vehicle>
    <vehicle id="veh17" type="passenger" depart="17.49" departLane="best">
        <route edges="511699175 458180183 5670124#0 5670124#1 46522008#0 46522008#1 397795464#0 397795464#1 569345544 525729008#0 125480075"/>
    </vehicle>
    <vehicle id="veh18" type="passenger" depart="18.52" departLane="best">
        <route edges="167922073#2 167922073#3 464516471#6 464516471#7 542258337#0 542258337#1 542258337#2 542258337#3 542258337#4 569345540#3 167922071 483360105 397795463 569345542#1 397795464#0 397795464#1 569345544 -167922076 -167922072#2 -167922072#1 -167922072#0 127693103#0 226041025#0 226041025#1 226041025#2"/>
    </vehicle>
    <vehicle id="veh19" type="passenger" depart="19.55" departLane="best">
        <route edges="194920158#0 194920158#4 194920158#5 194920158#6 194920158#7 194920158#8 194920158#9 194920158#10 194920158#11 194920158#12 569345540#0 569345540#3 167922073#0 167922073#1 167922073#2 167922073#3 226041029#0 226041029#1"/>
    </vehicle>
    <vehicle id="veh20" type="passenger" depart="20.57" departLane="best">
        <route edges="46538375#0 46538375#0-AddedOffRampEdge 46538375#5 46538375#6 420907906#3"/>
    </vehicle>
    <vehicle id="veh21" type="passenger" depart="21.60" departLane="best">
        <route edges="420905130#0 420905130#2 382740985#3 382740985#6 569345541#0 569345541#1 196116976#8 196116976#11"/>
    </vehicle>
    <vehicle id="veh22" type="passenger" depart="22.63" departLane="best">
        <route edges="226041027#3 226041027#4 226041027#5 226041026 464516471#0 464516471#1 464516471#2 464516471#3 464516471#4 464516471#5 464516471#6 464516471#7 464516471#8 464516471#9 569345538#0 569345538#1 569345538#2"/>
    </vehicle>
    <vehicle id="veh23" type="passenger" depart="23.66" departLane="best">
        <route edges="46538375#0-AddedOffRampEdge 5671276#0 5671276#6 5671276#9 5671276#11 5671276#12 420907908#0 420907908#1 226041027#0 226041027#1 226041027#2 194926851#1 46522008#5 46522008#6"/>
    </vehicle>
    <vehicle id="veh24" type="passenger" depart="24.69" departLane="best">
        <route edges="194926851#6 420907906#0 194920158#8 194920158#9 194920158#10 194920158#11 194920158#12 569345540#0 569345540#3 167922071 483360105 397795463 569345542#1 397795464#0 397795464#1 569345544 -167922076 35027229#0 35027229#1 500717410 542257982#0"/>
    </vehicle>
    <vehicle id="veh25" type="passenger" depart="25.72" departLane="best">
        <route edges="194926851#4 452322756#1 452322756#2 5671276#12 420907908#0 420907908#1 420907908#2"/>
    </vehicle>
    <vehicle id="veh26" type="passenger" depart="26.75" departLane="best">
        <route edges="569345546 542258061 440122868 448686048 127693103#0 127693103#1 464516471#0 464516471#1 464516471#2 464516471#3 464516471#4 464516471#5 464516471#6 464516471#7 464516471#8 464516471#9 569345537#0 569345537#2 420905130#0 420905130#2 382740985#3 46538375#11 46538375#13"/>
    </vehicle>
    <vehicle id="veh27" type="passenger" depart="27.78" departLane="best">
        <route edges="5671115#0 5671276#11 5671276#12 46482602#2 46482602#3 46482602#4 46482602#5 46482602#6 46482602#7 46482602#8 46482602#9 46482602#10 397795463 569345542#1 397795464#0 397795464#1 569345544 525729008#0 542259076#0 542259076#1"/>
    </vehicle>
    <vehicle id="veh28" type="passenger" depart="28.80" departLane="best">
        <route edges="196116976#12 167922074#0 167922074#1 167922071 483360105 397795463 569345542#1 397795464#0 397795464#1 569345544 -167922076 -167922072#2 -167922072#1 -167922072#0 -511699183#1"/>
    </vehicle>
    <vehicle id="veh30" type="passenger" depart="30.86" departLane="best">
        <route edges="196116976#0 46538375#8 46538375#9 382740985#6 588157337#0 569345540#0"/>
    </vehicle>
    <vehicle id="veh31" type="passenger" depart="31.89" departLane="best">
        <route edges="5671709#0 5671709#1 420905130#0 420905130#2 382740985#3 382740985#6"/>
    </vehicle>
    <vehicle id="veh32" type="passenger" depart="32.92" departLane="best">
        <route edges="5672036#2 452322757 452322756#0 194926851#5 194926851#6 420907906#0 194920158#8 194920158#9 194920158#10 196116976#11 46443656#3 46443656#4"/>
    </vehicle>
    <vehicle id="veh34" type="passenger" depart="34.98" departLane="best">
        <route edges="588157337#0 569345540#0 569345540#3 167922071 483360105 397795463 569345542#1 397795464#0 226041027#5 226041026 464516471#0 464516471#1 464516471#2 464516471#3"/>
    </vehicle>
    <vehicle id="veh35" type="passenger" depart="36.00" departLane="best">
        <route edges="167922074#1 167922071 483360105 397795463 569345542#1 397795464#0 397795464#1 569345544 525729008#0 125480075"/>
    </vehicle>
    <vehicle id="veh36" type="passenger" depart="37.03" departLane="best">
        <route edges="194920158#0 5671276#6 5671276#9 5671276#11 5671276#12 420907908#0 46522008#7"/>
    </vehicle>
    <vehicle id="veh37" type="passenger" depart="38.06" departLane="best">
        <route edges="5670114#0 5670114#1 542258337#0 542258337#1 542258337#2 542258337#3 542258337#4 46443656#0 46443656#2 46443656#3 46443656#4 46443656#5 46443656#6 46443656#7 46443656#8 5671276#9 5671276#11 452322756#3"/>
    </vehicle>
    <vehicle id="veh38" type="passenger" depart="39.09" departLane="best">
        <route edges="167922072#0 -167922072#0 127693103#0 127693103#1 464516471#0 46522008#0 46522008#1 46522008#2 46522008#3 46522008#4 46522008#5 46522008#6 420907908#1 420907908#2"/>
    </vehicle>
    <vehicle id="veh40" type="passenger" depart="41.15" departLane="best">
        <route edges="569345541#1 196116976#8 196116976#11 46443656#3 46443656#4 46443656#5 46443656#6 46443656#7 46443656#8 5671276#9 5671276#11 5671276#12 46482602#2 46482602#3 46482602#4 46482602#5 46482602#6 46482602#7 46482602#8 46482602#9 46482602#10 420494981#0 420494981#1 464516471#2 5672036#1"/>
    </vehicle>
    <vehicle id="veh41" type="passenger" depart="42.18" departLane="best">
        <route edges="-167922076 35027229#0 5673323#2 195743344 569345545 569345547#0 569345547#1 542257008#1"/>
    </vehicle>
    <vehicle id="veh42" type="passenger" depart="43.21" departLane="best">
        <route edges="483360105 397795463 569345542#1 46522008#2 46522008#3 46522008#4 194926851#2 194926851#3 194926851#4 452322756#1 452322756#2 5671276#12 46482602#2"/>
    </vehicle>
    <vehicle id="veh43" type="passenger" depart="44.23" departLane="best">
        <route edges="226041027#3 226041027#4 226041027#5 226041026 464516471#0 464516471#1 464516471#2 464516471#3 464516471#4 464516471#5 464516471#6 464516471#7 464516471#8 464516471#9 569345537#0 569345537#2 420905130#0 420905130#2 382740985#3 46538375#11 46538375#13 46538375#14"/>
    </vehicle>
    <vehicle id="veh44" type="passenger" depart="45.26" departLane="best">
        <route edges="194920158#0 5671276#6 5671276#9 5671276#11 452322756#3"/>
    </vehicle>
    <vehicle id="veh45" type="passenger" depart="46.29" departLane="best">
        <route edges="5671709#0 5671709#1 420905130#0 420905130#2 382740985#3 382740985#6 588157337#0 569345540#0 569345540#3 167922071 452322757 452322756#0 194926851#5 226041028#0 226041028#1"/>
    </vehicle>
    <vehicle id="veh46" type="passenger" depart="47.32" departLane="best">
        <route edges="464516471#5 464516471#6 464516471#7 542258337#0 542258337#1 542258337#2 542258337#3 542258337#4 569345540#3 167922071 483360105 397795463 569345542#1 397795464#0 397795464#1 569345544 167922070 195743209"/>
    </vehicle>
    <vehicle id="veh47" type="passenger" depart="48.35" departLane="best">
        <route edges="5672036#1 5672036#2 483360105 397795463 569345542#1 397795464#0 226041027#5 226041026 464516471#0 464516471#1 46522000#0 46522000#1 458180183 438397345 5672149#0"/>
    </vehicle>
    <vehicle id="veh48" type="passenger" depart="49.38" departLane="best">
        <route edges="542258337#1 542258337#2 542258337#3 542258337#4 46443656#0 46443656#2 46443656#3 46443656#4 46443656#5 46443656#6 46443656#7 46443656#8 5671276#9 5671276#11 5671276#12 46482602#2"/>
    </vehicle>
    <vehicle id="veh49" type="passenger" depart="50.41" departLane="best">
        <route edges="5670114#0 5670114#1 464516471#8 464516471#9"/>
    </vehicle>
    <vehicle id="veh50" type="passenger" depart="51.44" departLane="best">
        <route edges="-525729008#1 -167922076 -167922072#2 -167922072#1 -167922072#0 127693103#0 127693103#1 464516471#0 464516471#1 464516471#2 464516471#3 464516471#4 464516471#5 464516471#6 464516471#7 464516471#8 464516471#9 569345538#0"/>
    </vehicle>
    <vehicle id="veh51" type="passenger" depart="52.46" departLane="best">
        <route edges="5671709#0 5671709#1 420905130#0 420905130#2 382740985#3 382740985#6 588157337#0 569345540#0 46443656#0 46443656#2 46443656#3 46443656#4 46443656#5 46443656#6 46443656#7 46443656#8 5671276#9 5671115#3"/>
    </vehicle>
    <vehicle id="veh53" type="passenger" depart="54.52" departLane="best">
        <route edges="5671709#0 5671709#1 420905130#0 420905130#2 382740985#3 382740985#6 588157337#0 569345540#0 569345540#3"/>
    </vehicle>
    <vehicle id="veh54" type="passenger" depart="55.55" departLane="best">
        <route edges="167922073#3 464516471#6 464516471#7 542258337#0 542258337#1 542258337#2 542258337#3 542258337#4 46443656#0 46443656#2 46443656#3 46443656#4 46443656#5 46443656#6 46443656#7 46443656#8 46443656#9"/>
    </vehicle>
    <vehicle id="veh55" type="passenger" depart="56.58" departLane="best">
        <route edges="167922072#2 167922076 525729008#0 542259076#0"/>
    </vehicle>
    <vehicle id="veh56" type="passenger" depart="57.61" departLane="best">
        <route edges="542258337#2 542258337#3 542258337#4 569345540#3 167922071 483360105 397795463 569345542#1 397795464#0 397795464#1 569345543 194926846#0"/>
    </vehicle>
    <vehicle id="veh57" type="passenger" depart="58.64" departLane="best">
        <route edges="464515890 464515891 5672464 127693103#1 464516471#0 46522008#0 46522008#1 46522008#2 46522008#3 46522008#4 194926851#2 194926851#3 46482602#5"/>
    </vehicle>
    <vehicle id="veh58" type="passenger" depart="59.66" departLane="best">
        <route edges="226041027#2 194926851#1 194926851#2 194926851#3 46482602#5 46482602#6 46482602#7 46482602#8 46482602#9 46482602#10 420494981#0 420494981#1 46522000#0 46522000#1 458180183 438397345 5672149#0"/>
    </vehicle>
    <vehicle id="veh59" type="passenger" depart="60.69" departLane="best">
        <route edges="46482602#2 46482602#3 46482602#4 46482602#5 46482602#6 46482602#7 46482602#8 46482602#9 46482602#10 397795463 569345542#1 397795464#0 397795464#1 569345544 -167922076 35027229#0 35027229#1 500717410 542257982#0"/>
    </vehicle>
    <vehicle id="veh60" type="passenger" depart="61.72" departLane="best">
        <route edges="195743344 569345545 569345546 542258061 440122868 448686048 127693103#0 127693103#1 464516471#0 464516471#1 464516471#2 464516471#3 464516471#4 464516471#5 464516471#6 464516471#7 464516471#8 464516471#9 569345537#0 569345537#2 420905130#0 420905130#2 382740985#3 382740985#6"/>
    </vehicle>
    <vehicle id="veh62" type="passenger" depart="63.78" departLane="best">
        <route edges="458177130 5670124#0 5670124#1 464516471#1 464516471#2 464516471#3 464516471#4 464516471#5"/>
    </vehicle>
    <vehicle id="veh63" type="passenger" depart="64.81" departLane="best">
        <route edges="382740985#0 382740985#3 382740985#6 588157337#0 569345540#0 569345540#3 167922071 483360105 397795463 569345542#1 397795464#0 226041027#5 226041026 464516471#0 46522008#0"/>
    </vehicle>
    <vehicle id="veh65" type="passenger" depart="66.87" departLane="best">
        <route edges="196116976#12 167922074#0 167922074#1 167922073#0 167922073#1 167922073#2 167922073#3 464516471#6 464516471#7 464516471#8 464516471#9 569345537#0 569345537#2"/>
    </vehicle>
    <vehicle id="veh66" type="passenger" depart="67.89" departLane="best">
        <route edges="5671276#11 5671276#12 46482602#2 46482602#3 46482602#4 46482602#5 46482602#6 46482602#7 46482602#8 46482602#9 46482602#10 397795463 569345542#1 397795464#0 397795464#1 569345544 -167922076 -167922072#2 167922072#2"/>
    </vehicle>
    <vehicle id="veh67" type="passenger" depart="68.92" departLane="best">
        <route edges="196116976#0 46538375#8 46538375#9 382740985#6 588157337#0 569345540#0 569345540#3 167922071 483360105 397795463 569345542#1 397795464#0 397795464#1 569345543 194926846#0 194926846#1"/>
    </vehicle>
    <vehicle id="veh68" type="passenger" depart="69.95" departLane="best">
        <route edges="569345537#0 569345537#2 569345537#4 46521993"/>
    </vehicle>
    <vehicle id="veh69" type="passenger" depart="70.98" departLane="best">
        <route edges="46443656#8 5671276#9 5671276#11 5671276#12 46482602#2 46482602#3 46482602#4 46482602#5 46482602#6 46482602#7 46482602#8 46482602#9 46482602#10 420494981#0 420494981#1 46522000#0 46522000#1 458180183 5670124#0"/>
    </vehicle>
    <vehicle id="veh70" type="passenger" depart="72.01" departLane="best">
        <route edges="194920158#0 5671276#6 5671276#9 5671276#11 452322756#3"/>
    </vehicle>
    <vehicle id="veh71" type="passenger" depart="73.04" departLane="best">
        <route edges="452322757 452322756#0 194926851#5 194926851#6 46443656#5 46443656#6"/>
    </vehicle>
    <vehicle id="veh72" type="passenger" depart="74.07" departLane="best">
        <route edges="511699183#0 511699183#1 127693103#0 127693103#1 464516471#0 464516471#1 464516471#2 464516471#3 464516471#4 464516471#5 464516471#6 464516471#7 542258337#0 542258337#1 542258337#2 542258337#3 542258337#4 46443656#0 46443656#2 46443656#3 46443656#4 420907906#0 420907906#1 420907906#2 46538375#7"/>
    </vehicle>
    <vehicle id="veh73" type="passenger" depart="75.10" departLane="best">
        <route edges="569345545 569345546 542258061 440122868 448686048 127693103#0 127693103#1 464516471#0 464516471#1 464516471#2 464516471#3 464516471#4 464516471#5 464516471#6 464516471#7 542258337#0 542258337#1 542258337#2 542258337#3 542258337#4 46443656#0 46443656#2 46443656#3 46443656#4 420907906#0 194920158#8 194920158#9 194920158#10"/>
    </vehicle>
    <vehicle id="veh74" type="passenger" depart="76.12" departLane="best">
        <route edges="438397345 464515891 5672464 127693103#1 464516471#0 464516471#1 464516471#2 464516471#3 464516471#4 464516471#5 464516471#6 464516471#7 542258337#0 542258337#1 542258337#2 542258337#3 542258337#4 46443656#0 46443656#2 46443656#3 46443656#4 420907906#0"/>
    </vehicle>
    <vehicle id="veh75" type="passenger" depart="77.15" departLane="best">
        <route edges="5671276#12 420907908#0 420907908#1 226041027#0 226041027#1 226041027#2"/>
    </vehicle>
    <vehicle id="veh76" type="passenger" depart="78.18" departLane="best">
        <route edges="194926854#0 194926854#4 125479721 542257430 195743345 125480075 194926851#0 194926851#1 194926851#2 194926851#3 46482602#5 46482602#6 46482602#7 46482602#8 46482602#9 46482602#10 420494981#0 420494981#1 464516471#2 464516471#3 464516471#4 464516471#5 464516471#6 464516471#7 542258337#0 542258337#1 542258337#2 542258337#3 542258337#4 46443656#0"/>
    </vehicle>
    <vehicle id="veh77" type="passenger" depart="79.21" departLane="best">
        <route edges="452322756#2 5671276#12 46482602#2 46482602#3 46482602#4 46482602#5 46482602#6 46482602#7 46482602#8 46482602#9 46482602#10 420494981#0 420494981#1 464516471#2 464516471#3 464516471#4 464516471#5 226041029#0 226041029#1"/>
    </vehicle>
    <vehicle id="veh78" type="passenger" depart="80.24" departLane="best">
        <route edges="226041025#2 569345544 -167922076 -167922072#2 -167922072#1 -167922072#0 127693103#0 127693103#1 464516471#0 464516471#1 464516471#2 464516471#3 464516471#4 464516471#5 464516471#6 464516471#7 464516471#8 464516471#9 569345537#0 569345537#2 569345537#4 569345537#5"/>
    </vehicle>
    <vehicle id="veh79" type="passenger" depart="81.27" departLane="best">
        <route edges="458180183 5670124#0 5670124#1 464516471#1 464516471#2 5672036#1"/>
    </vehicle>
    <vehicle id="veh80" type="passenger" depart="82.30" departLane="best">
        <route edges="46482602#6 46482602#7 46482602#8 46482602#9 46482602#10 397795463 569345542#1 397795464#0 397795464#1 569345544 -167922076 -167922072#2 -167922072#1 -167922072#0 127693103#0"/>
    </vehicle>
    <vehicle id="veh81" type="passenger" depart="83.33" departLane="best">
        <route edges="588157337#0 569345540#0 46443656#0 46443656#2 46443656#3 46443656#4 46443656#5 46443656#6 46443656#7 46443656#8 5671276#9 5671115#3 5671115#4"/>
    </vehicle>
    <vehicle id="veh82" type="passenger" depart="84.35" departLane="best">
        <route edges="569345541#1 196116976#8 194920158#11 194920158#12 420908138#0 420908138#2 420908138#3 464516471#9 569345537#0 569345537#2 569345537#4 569345537#5"/>
    </vehicle>
    <vehicle id="veh83" type="passenger" depart="85.38" departLane="best">
        <route edges="464516471#1 464516471#2 464516471#3 464516471#4 464516471#5 464516471#6 464516471#7 542258337#0 542258337#1 542258337#2 542258337#3 542258337#4 46443656#0 46443656#2 196116976#12"/>
    </vehicle>
    <vehicle id="veh84" type="passenger" depart="86.41" departLane="best">
        <route edges="420908138#3 464516471#9 569345538#0 569345538#1 569345538#2 569345539 588157337#0 569345540#0 569345540#3 167922071 483360105 397795463 569345542#1 397795464#0 397795464#1 569345544 167922070"/>
    </vehicle>
    <vehicle id="veh85" type="passenger" depart="87.44" departLane="best">
        <route edges="420907906#1 420907906#2 46538375#7 46538375#8 46538375#9 382740985#6 588157337#0 569345540#0 569345540#3 167922071 483360105 397795463 569345542#1 397795464#0 397795464#1 569345544 167922070 195743344 569345545 569345547#0 569345547#1 569345547#2"/>
    </vehicle>
    <vehicle id="veh86" type="passenger" depart="88.47" departLane="best">
        <route edges="226041027#2 194926851#1 194926851#2 194926851#3 46482602#5 46482602#6 46482602#7 46482602#8 46482602#9 46482602#10 420494981#0 420494981#1 46522000#0 46522000#1 458180183 5670124#0"/>
    </vehicle>
    <vehicle id="veh87" type="passenger" depart="89.50" departLane="best">
        <route edges="46443656#3 46443656#4 46443656#5 46443656#6 46443656#7 46443656#8 5671276#9 5671276#11 452322756#3"/>
    </vehicle>
    <vehicle id="veh88" type="passenger" depart="90.53" departLane="best">
        <route edges="569345539 588157337#0 569345540#0 569345540#3 167922071 483360105 397795463 569345542#1 397795464#0 397795464#1 569345544 167922070 195743344 569345545 569345547#0 569345547#1 569345547#2"/>
    </vehicle>
    <vehicle id="veh89" type="passenger" depart="91.55" departLane="best">
        <route edges="46482602#7 46482602#8 46482602#9 46482602#10 397795463 569345542#1 397795464#0 397795464#1 569345544 167922070 195743344 569345545 569345547#0 569345547#1 542257008#1"/>
    </vehicle>
    <vehicle id="veh90" type="passenger" depart="92.58" departLane="best">
        <route edges="194926851#1 194926851#2 194926851#3 46482602#5 46482602#6 46482602#7 46482602#8 46482602#9 46482602#10 420494981#0 420494981#1 464516471#2 464516471#3 464516471#4 464516471#5 464516471#6 464516471#7 464516471#8 464516471#9 569345538#0 569345538#1 569345538#2 569345539 569345541#0 569345541#1 226041030#0 226041030#1 226041030#2"/>
    </vehicle>
    <vehicle id="veh91" type="passenger" depart="93.61" departLane="best">
        <route edges="569345541#0 569345541#1 196116976#8 194920158#11 194920158#12 420908138#0 420908138#2 420908138#3 464516471#9 569345537#0 569345537#2 569345537#4 46521993"/>
    </vehicle>
    <vehicle id="veh92" type="passenger" depart="94.64" departLane="best">
        <route edges="46482602#3 46482602#4 46482602#5 46482602#6 46482602#7 46482602#8 46482602#9 46482602#10 420494981#0 420494981#1 464516471#2 464516471#3 464516471#4 464516471#5 464516471#6 464516471#7 542258337#0 542258337#1 542258337#2"/>
    </vehicle>
    <vehicle id="veh93" type="passenger" depart="95.67" departLane="best">
        <route edges="167922070 195743344 569345545 569345546 542258061 440122868 448686048 127693103#0 127693103#1 464516471#0 464516471#1 46522000#0"/>
    </vehicle>
    <vehicle id="veh94" type="passenger" depart="96.70" departLane="best">
        <route edges="464516471#6 464516471#7 542258337#0 542258337#1 542258337#2 542258337#3 542258337#4 46443656#0 46443656#2 46443656#3 46443656#4 46443656#5 46443656#6 46443656#7 46443656#8 5671276#9"/>
    </vehicle>
    <vehicle id="veh95" type="passenger" depart="97.73" departLane="best">
        <route edges="167922073#2 167922073#3 464516471#6 464516471#7 542258337#0 542258337#1 542258337#2 542258337#3 542258337#4 569345540#3 167922071 483360105 397795463 569345542#1 397795464#0 397795464#1 569345544 167922070 195743209 195743210#0 195743210#2"/>
    </vehicle>
    <vehicle id="veh96" type="passenger" depart="98.76" departLane="best">
        <route edges="46522008#1 46522008#2 46522008#3 46522008#4 194926851#2 194926851#3 194926851#4 194926851#5 194926851#6 420907906#0 420907906#1 420907906#2 46538375#7 46538375#8"/>
    </vehicle>
    <vehicle id="veh97" type="passenger" depart="99.78" departLane="best">
        <route edges="5671709#1 420905130#0 420905130#2 382740985#3 382740985#6 588157337#0 569345540#0 46443656#0 46443656#2 46443656#3 46443656#4 46443656#5 46443656#6 46443656#7 46443656#8 5671276#9 5671276#11 5671276#12 420907908#0 420907908#1 226041027#0 226041027#1 226041027#2"/>
    </vehicle>
    <vehicle id="veh98" type="passenger" depart="100.81" departLane="best">
        <route edges="46522008#1 46522008#2 46522008#3 46522008#4 46522008#5 46522008#6 46522008#7"/>
    </vehicle>
    <vehicle id="veh99" type="passenger" depart="101.84" departLane="best">
        <route edges="452322756#2 5671276#12 46482602#2 46482602#3 46482602#4 46482602#5 46482602#6 46482602#7 46482602#8 46482602#9 46482602#10 420494981#0 420494981#1 46522000#0"/>
    </vehicle>
    <vehicle id="veh100" type="passenger" depart="102.87" departLane="best">
        <route edges="46482602#0 46482602#2 46482602#3 46482602#4 46482602#5 46482602#6 46482602#7 46482602#8 46482602#9 46482602#10 420494981#0 420494981#1 464516471#2 464516471#3 464516471#4 464516471#5 464516471#6 464516471#7 464516471#8 464516471#9 569345538#0 569345538#1 569345538#2"/>
    </vehicle>
    <vehicle id="veh101" type="passenger" depart="103.90" departLane="best">
        <route edges="195743345 -525729008#1 167922070 195743344 569345545 569345547#0 569345547#1 542257008#1"/>
    </vehicle>
    <vehicle id="veh104" type="passenger" depart="106.99" departLane="best">
        <route edges="167922072#2 167922076 -167922076 -167922072#2 -167922072#1 -167922072#0 127693103#0 127693103#1 464516471#0 464516471#1 464516471#2 464516471#3 464516471#4 464516471#5 464516471#6 464516471#7 542258337#0 542258337#1 542258337#2 542258337#3 542258337#4 46443656#0 46443656#2 46443656#3 46443656#4"/>
    </vehicle>
    <vehicle id="veh105" type="passenger" depart="108.01" departLane="best">
        <route edges="588157337#0 569345540#0 569345540#3 167922071 483360105 397795463 569345542#1 397795464#0 397795464#1 569345544 167922070 195743344 569345545 569345547#0 569345547#1 569345547#2"/>
    </vehicle>
    <vehicle id="veh106" type="passenger" depart="109.04" departLane="best">
        <route edges="226041027#2 194926851#1 194926851#2 194926851#3 46482602#5 46482602#6 46482602#7 46482602#8 46482602#9 46482602#10 420494981#0 420494981#1 464516471#2 464516471#3 464516471#4 464516471#5 464516471#6 464516471#7 464516471#8 464516471#9 569345538#0 569345538#1"/>
    </vehicle>
    <vehicle id="veh107" type="passenger" depart="110.07" departLane="best">
        <route edges="5671709#0 5671709#1 420905130#0 420905130#2 382740985#3 382740985#6 588157337#0 569345540#0 569345540#3 167922071 483360105 397795463 569345542#1 397795464#0 226041027#5 226041026 464516471#0 464516471#1 46522000#0 46522000#1 458180183 438397345 5672149#0"/>
    </vehicle>
    <vehicle id="veh108" type="passenger" depart="111.10" departLane="best">