<?xml version="1.0"?>
<!-- generated on 2018-06-30 10:26:15.589120 by $Id$ -->
<trips>
    <vType id="passenger" vClass="passenger"/>
    <trip id="veh0" depart="0.00" departLane="best" from="46538375#0" to="-511699183#0" type="passenger"/>
    <trip id="veh1" depart="1.03" departLane="best" from="226041027#5" to="196116976#8" type="passenger"/>
    <trip id="veh2" depart="2.06" departLane="best" from="525729008#0" to="46538375#8" type="passenger"/>
    <trip id="veh3" depart="3.09" departLane="best" from="5671709#1" to="167922074#0" type="passenger"/>
    <trip id="veh4" depart="4.11" departLane="best" from="452322756#2" to="-511699183#0" type="passenger"/>
    <trip id="veh5" depart="5.14" departLane="best" from="196116976#0" to="464516471#2" type="passenger"/>
    <trip id="veh6" depart="6.17" departLane="best" from="46538375#0-AddedOffRampEdge" to="46482602#4" type="passenger"/>
    <trip id="veh7" depart="7.20" departLane="best" from="196116976#0" to="46522008#0" type="passenger"/>
    <trip id="veh8" depart="8.23" departLane="best" from="5670197#0" to="-167922072#1" type="passenger"/>
    <trip id="veh9" depart="9.26" departLane="best" from="382740985#0" to="194926851#1" type="passenger"/>
    <trip id="veh10" depart="10.29" departLane="best" from="167922074#1" to="167922076" type="passenger"/>
    <trip id="veh11" depart="11.32" departLane="best" from="5671115#0" to="46522008#4" type="passenger"/>
    <trip id="veh12" depart="12.34" departLane="best" from="5670197#0" to="542257982#0" type="passenger"/>
    <trip id="veh13" depart="13.37" departLane="best" from="46482602#10" to="569345547#0" type="passenger"/>
    <trip id="veh14" depart="14.40" departLane="best" from="420907906#1" to="46482602#6" type="passenger"/>
    <trip id="veh16" depart="16.46" departLane="best" from="5671276#12" to="46521993" type="passenger"/>
    <trip id="veh17" depart="17.49" departLane="best" from="511699175" to="125480075" type="passenger"/>
    <trip id="veh18" depart="18.52" departLane="best" from="167922073#2" to="226041025#2" type="passenger"/>
    <trip id="veh19" depart="19.55" departLane="best" from="194920158#0" to="226041029#1" type="passenger"/>
    <trip id="veh20" depart="20.57" departLane="best" from="46538375#0" to="420907906#3" type="passenger"/>
    <trip id="veh21" depart="21.60" departLane="best" from="420905130#0" to="196116976#11" type="passenger"/>
    <trip id="veh22" depart="22.63" departLane="best" from="226041027#3" to="569345538#2" type="passenger"/>
    <trip id="veh23" depart="23.66" departLane="best" from="46538375#0-AddedOffRampEdge" to="46522008#6" type="passenger"/>
    <trip id="veh24" depart="24.69" departLane="best" from="194926851#6" to="542257982#0" type="passenger"/>
    <trip id="veh25" depart="25.72" departLane="best" from="194926851#4" to="420907908#2" type="passenger"/>
    <trip id="veh26" depart="26.75" departLane="best" from="569345546" to="46538375#13" type="passenger"/>
    <trip id="veh27" depart="27.78" departLane="best" from="5671115#0" to="542259076#1" type="passenger"/>
    <trip id="veh28" depart="28.80" departLane="best" from="196116976#12" to="-511699183#1" type="passenger"/>
    <trip id="veh30" depart="30.86" departLane="best" from="196116976#0" to="569345540#0" type="passenger"/>
    <trip id="veh31" depart="31.89" departLane="best" from="5671709#0" to="382740985#6" type="passenger"/>
    <trip id="veh32" depart="32.92" departLane="best" from="5672036#2" to="46443656#4" type="passenger"/>
    <trip id="veh34" depart="34.98" departLane="best" from="588157337#0" to="464516471#3" type="passenger"/>
    <trip id="veh35" depart="36.00" departLane="best" from="167922074#1" to="125480075" type="passenger"/>
    <trip id="veh36" depart="37.03" departLane="best" from="194920158#0" to="46522008#7" type="passenger"/>
    <trip id="veh37" depart="38.06" departLane="best" from="5670114#0" to="452322756#3" type="passenger"/>
    <trip id="veh38" depart="39.09" departLane="best" from="167922072#0" to="420907908#2" type="passenger"/>
    <trip id="veh40" depart="41.15" departLane="best" from="569345541#1" to="5672036#1" type="passenger"/>
    <trip id="veh41" depart="42.18" departLane="best" from="-167922076" to="542257008#1" type="passenger"/>
    <trip id="veh42" depart="43.21" departLane="best" from="483360105" to="46482602#2" type="passenger"/>
    <trip id="veh43" depart="44.23" departLane="best" from="226041027#3" to="46538375#14" type="passenger"/>
    <trip id="veh44" depart="45.26" departLane="best" from="194920158#0" to="452322756#3" type="passenger"/>
    <trip id="veh45" depart="46.29" departLane="best" from="5671709#0" to="226041028#1" type="passenger"/>
    <trip id="veh46" depart="47.32" departLane="best" from="464516471#5" to="195743209" type="passenger"/>
    <trip id="veh47" depart="48.35" departLane="best" from="5672036#1" to="5672149#0" type="passenger"/>
    <trip id="veh48" depart="49.38" departLane="best" from="542258337#1" to="46482602#2" type="passenger"/>
    <trip id="veh49" depart="50.41" departLane="best" from="5670114#0" to="464516471#9" type="passenger"/>
    <trip id="veh50" depart="51.44" departLane="best" from="-525729008#1" to="569345538#0" type="passenger"/>
    <trip id="veh51" depart="52.46" departLane="best" from="5671709#0" to="5671115#3" type="passenger"/>
    <trip id="veh53" depart="54.52" departLane="best" from="5671709#0" to="569345540#3" type="passenger"/>
    <trip id="veh54" depart="55.55" departLane="best" from="167922073#3" to="46443656#9" type="passenger"/>
    <trip id="veh55" depart="56.58" departLane="best" from="167922072#2" to="542259076#0" type="passenger"/>
    <trip id="veh56" depart="57.61" departLane="best" from="542258337#2" to="194926846#0" type="passenger"/>
    <trip id="veh57" depart="58.64" departLane="best" from="464515890" to="46482602#5" type="passenger"/>
    <trip id="veh58" depart="59.66" departLane="best" from="226041027#2" to="5672149#0" type="passenger"/>
    <trip id="veh59" depart="60.69" departLane="best" from="46482602#2" to="542257982#0" type="passenger"/>
    <trip id="veh60" depart="61.72" departLane="best" from="195743344" to="382740985#6" type="passenger"/>
    <trip id="veh62" depart="63.78" departLane="best" from="458177130" to="464516471#5" type="passenger"/>
    <trip id="veh63" depart="64.81" departLane="best" from="382740985#0" to="46522008#0" type="passenger"/>
    <trip id="veh65" depart="66.87" departLane="best" from="196116976#12" to="569345537#2" type="passenger"/>
    <trip id="veh66" depart="67.89" departLane="best" from="5671276#11" to="167922072#2" type="passenger"/>
    <trip id="veh67" depart="68.92" departLane="best" from="196116976#0" to="194926846#1" type="passenger"/>
    <trip id="veh68" depart="69.95" departLane="best" from="569345537#0" to="46521993" type="passenger"/>
    <trip id="veh69" depart="70.98" departLane="best" from="46443656#8" to="5670124#0" type="passenger"/>
    <trip id="veh70" depart="72.01" departLane="best" from="194920158#0" to="452322756#3" type="passenger"/>
    <trip id="veh71" depart="73.04" departLane="best" from="452322757" to="46443656#6" type="passenger"/>
    <trip id="veh72" depart="74.07" departLane="best" from="511699183#0" to="46538375#7" type="passenger"/>
    <trip id="veh73" depart="75.10" departLane="best" from="569345545" to="194920158#10" type="passenger"/>
    <trip id="veh74" depart="76.12" departLane="best" from="438397345" to="420907906#0" type="passenger"/>
    <trip id="veh75" depart="77.15" departLane="best" from="5671276#12" to="226041027#2" type="passenger"/>
    <trip id="veh76" depart="78.18" departLane="best" from="194926854#0" to="46443656#0" type="passenger"/>
    <trip id="veh77" depart="79.21" departLane="best" from="452322756#2" to="226041029#1" type="passenger"/>
    <trip id="veh78" depart="80.24" departLane="best" from="226041025#2" to="569345537#5" type="passenger"/>
    <trip id="veh79" depart="81.27" departLane="best" from="458180183" to="5672036#1" type="passenger"/>
    <trip id="veh80" depart="82.30" departLane="best" from="46482602#6" to="127693103#0" type="passenger"/>
    <trip id="veh81" depart="83.33" departLane="best" from="588157337#0" to="5671115#4" type="passenger"/>
    <trip id="veh82" depart="84.35" departLane="best" from="569345541#1" to="569345537#5" type="passenger"/>
    <trip id="veh83" depart="85.38" departLane="best" from="464516471#1" to="196116976#12" type="passenger"/>
    <trip id="veh84" depart="86.41" departLane="best" from="420908138#3" to="167922070" type="passenger"/>
    <trip id="veh85" depart="87.44" departLane="best" from="420907906#1" to="569345547#2" type="passenger"/>
    <trip id="veh86" depart="88.47" departLane="best" from="226041027#2" to="5670124#0" type="passenger"/>
    <trip id="veh87" depart="89.50" departLane="best" from="46443656#3" to="452322756#3" type="passenger"/>
    <trip id="veh88" depart="90.53" departLane="best" from="569345539" to="569345547#2" type="passenger"/>
    <trip id="veh89" depart="91.55" departLane="best" from="46482602#7" to="542257008#1" type="passenger"/>
    <trip id="veh90" depart="92.58" departLane="best" from="194926851#1" to="226041030#2" type="passenger"/>
    <trip id="veh91" depart="93.61" departLane="best" from="569345541#0" to="46521993" type="passenger"/>
    <trip id="veh92" depart="94.64" departLane="best" from="46482602#3" to="542258337#2" type="passenger"/>
    <trip id="veh93" depart="95.67" departLane="best" from="167922070" to="46522000#0" type="passenger"/>
    <trip id="veh94" depart="96.70" departLane="best" from="464516471#6" to="5671276#9" type="passenger"/>
    <trip id="veh95" depart="97.73" departLane="best" from="167922073#2" to="195743210#2" type="passenger"/>
    <trip id="veh96" depart="98.76" departLane="best" from="46522008#1" to="46538375#8" type="passenger"/>
    <trip id="veh97" depart="99.78" departLane="best" from="5671709#1" to="226041027#2" type="passenger"/>
    <trip id="veh98" depart="100.81" departLane="best" from="46522008#1" to="46522008#7" type="passenger"/>
    <trip id="veh99" depart="101.84" departLane="best" from="452322756#2" to="46522000#0" type="passenger"/>
    <trip id="veh100" depart="102.87" departLane="best" from="46482602#0" to="569345538#2" type="passenger"/>
    <trip id="veh101" depart="103.90" departLane="best" from="195743345" to="542257008#1" type="passenger"/>
    <trip id="veh104" depart="106.99" departLane="best" from="167922072#2" to="46443656#4" type="passenger"/>
    <trip id="veh105" depart="108.01" departLane="best" from="588157337#0" to="569345547#2" type="passenger"/>
    <trip id="veh106" depart="109.04" departLane="best" from="226041027#2" to="569345538#1" type="passenger"/>
    <trip id="veh107" depart="110.07" departLane="best" from="5671709#0" to="5672149#0" type="passenger"/>
    <trip id="veh108" depart="111.10" departLane="best" from="420905130#0" to="194926851#2" type="passenger"/>
    <trip id="veh110" depart="113.16" departLane="best" from="46522008#6" to="569345547#2" type="passenger"/>
    <trip id="veh111" depart="114.19" departLane="best" from="46538375#11" to="-167922072#2" type="passenger"/>
    <trip id="veh113" depart="116.24" departLane="best" from="194920158#0" to="46482602#6" type="passenger"/>
    <trip id="veh114" depart="117.27" departLane="best" from="511699183#0" to="195743344" type="passenger"/>
    <trip id="veh115" depart="118.30" departLane="best" from="46538375#0" to="226041028#1" type="passenger"/>
    <trip id="veh116" depart="119.33" departLane="best" from="464516471#2" to="569345537#2" type="passenger"/>
    <trip id="veh117" depart="120.36" departLane="best" from="5671115#0" to="167922074#1" type="passenger"/>
    <trip id="veh118" depart="121.39" departLane="best" from="452322757" to="226041029#1" type="passenger"/>
    <trip id="veh119" depart="122.42" departLane="best" from="-167922072#1" to="542259076#1" type="passenger"/>
    <trip id="veh120" depart="123.44" departLane="best" from="46538375#0" to="226041028#0" type="passenger"/>
    <trip id="veh121" depart="124.47" departLane="best" from="542257430" to="46482602#6" type="passenger"/>
    <trip id="veh122" depart="125.50" departLane="best" from="458177130" to="-167922072#2" type="passenger"/>
    <trip id="veh123" depart="126.53" departLane="best" from="167922073#0" to="5672464" type="passenger"/>
    <trip id="veh124" depart="127.56" departLane="best" from="5672036#0" to="46482602#4" type="passenger"/>
    <trip id="veh125" depart="128.59" departLane="best" from="5671115#0" to="46522000#0" type="passenger"/>
    <trip id="veh128" depart="131.67" departLane="best" from="5670114#1" to="5672036#1" type="passenger"/>
    <trip id="veh129" depart="132.70" departLane="best" from="5672036#0" to="196116976#11" type="passenger"/>
    <trip id="veh130" depart="133.73" departLane="best" from="226041025#2" to="194920158#11" type="passenger"/>
    <trip id="veh131" depart="134.76" departLane="best" from="5670114#0" to="5672464" type="passenger"/>
    <trip id="veh132" depart="135.79" departLane="best" from="440122868" to="46522008#7" type="passenger"/>
    <trip id="veh133" depart="136.82" departLane="best" from="194926851#1" to="569345538#0" type="passenger"/>
    <trip id="veh134" depart="137.85" departLane="best" from="5671276#12" to="569345547#1" type="passenger"/>
    <trip id="veh135" depart="138.88" departLane="best" from="5670197#0" to="5672149#0" type="passenger"/>
    <trip id="veh136" depart="139.90" departLane="best" from="-542259076#1" to="542258060" type="passenger"/>
    <trip id="veh137" depart="140.93" departLane="best" from="5670124#0" to="5672036#2" type="passenger"/>
    <trip id="veh138" depart="141.96" departLane="best" from="5670197#0" to="226041029#0" type="passenger"/>
    <trip id="veh140" depart="144.02" departLane="best" from="5671709#0" to="5672036#1" type="passenger"/>
    <trip id="veh141" depart="145.05" departLane="best" from="196116976#0" to="5670867#1" type="passenger"/>
    <trip id="veh142" depart="146.08" departLane="best" from="46443656#5" to="35027229#1" type="passenger"/>
    <trip id="veh143" depart="147.10" departLane="best" from="5670114#0" to="226041025#0" type="passenger"/>
    <trip id="veh144" depart="148.13" departLane="best" from="382740985#0" to="5672036#2" type="passenger"/>
    <trip id="veh145" depart="149.16" departLane="best" from="569345541#0" to="226041029#1" type="passenger"/>
    <trip id="veh146" depart="150.19" departLane="best" from="46538375#0" to="420908138#3" type="passenger"/>
    <trip id="veh148" depart="152.25" departLane="best" from="569345541#1" to="195743209" type="passenger"/>
    <trip id="veh149" depart="153.28" departLane="best" from="194920158#0" to="452322756#3" type="passenger"/>
    <trip id="veh150" depart="154.31" departLane="best" from="511699183#0" to="382740985#6" type="passenger"/>
    <trip id="veh151" depart="155.33" departLane="best" from="46522008#5" to="464516471#3" type="passenger"/>
    <trip id="veh152" depart="156.36" departLane="best" from="420907908#0" to="46521993" type="passenger"/>
    <trip id="veh153" depart="157.39" departLane="best" from="226041026" to="542257008#1" type="passenger"/>
    <trip id="veh154" depart="158.42" departLane="best" from="-167922072#0" to="569345537#5" type="passenger"/>
    <trip id="veh155" depart="159.45" departLane="best" from="46482602#2" to="542257008#1" type="passenger"/>
    <trip id="veh157" depart="161.51" departLane="best" from="420494981#1" to="167922072#2" type="passenger"/>
    <trip id="veh162" depart="166.65" departLane="best" from="438397345" to="226041030#2" type="passenger"/>
    <trip id="veh163" depart="167.68" departLane="best" from="569345537#2" to="46538375#8" type="passenger"/>
    <trip id="veh164" depart="168.71" departLane="best" from="5672036#0" to="46522008#7" type="passenger"/>
    <trip id="veh166" depart="170.76" departLane="best" from="-167922072#0" to="226041029#1" type="passenger"/>
    <trip id="veh167" depart="171.79" departLane="best" from="458177130" to="46521993" type="passenger"/>
    <trip id="veh168" depart="172.82" departLane="best" from="46538375#13" to="46443656#6" type="passenger"/>
    <trip id="veh169" depart="173.85" departLane="best" from="458177130" to="196116976#12" type="passenger"/>
    <trip id="veh170" depart="174.88" departLane="best" from="46443656#8" to="569345537#0" type="passenger"/>
    <trip id="veh171" depart="175.91" departLane="best" from="5670114#1" to="194926851#6" type="passenger"/>
    <trip id="veh172" depart="176.94" departLane="best" from="46538375#0" to="420905130#0" type="passenger"/>
    <trip id="veh173" depart="177.97" departLane="best" from="5670197#0" to="542258337#3" type="passenger"/>
    <trip id="veh175" depart="180.02" departLane="best" from="226041025#0" to="46443656#9" type="passenger"/>
    <trip id="veh176" depart="181.05" departLane="best" from="5671115#3" to="167922073#0" type="passenger"/>
    <trip id="veh178" depart="183.11" departLane="best" from="464516471#3" to="226041027#1" type="passenger"/>
    <trip id="veh179" depart="184.14" departLane="best" from="46538375#13" to="-167922072#1" type="passenger"/>
    <trip id="veh180" depart="185.17" departLane="best" from="542258060" to="542259076#1" type="passenger"/>
    <trip id="veh181" depart="186.20" departLane="best" from="194920158#0" to="452322756#3" type="passenger"/>
    <trip id="veh182" depart="187.22" departLane="best" from="194926854#0" to="569345542#1" type="passenger"/>
    <trip id="veh183" depart="188.25" departLane="best" from="46482602#0" to="127693103#0" type="passenger"/>
    <trip id="veh185" depart="190.31" departLane="best" from="46443656#3" to="5670225" type="passenger"/>
    <trip id="veh186" depart="191.34" departLane="best" from="46538375#5" to="569345547#2" type="passenger"/>
    <trip id="veh187" depart="192.37" departLane="best" from="46522008#2" to="569345541#0" type="passenger"/>
    <trip id="veh188" depart="193.40" departLane="best" from="5671709#1" to="46522008#7" type="passenger"/>
    <trip id="veh189" depart="194.43" departLane="best" from="511699183#0" to="464516471#1" type="passenger"/>
    <trip id="veh190" depart="195.45" departLane="best" from="5671115#0" to="46482602#5" type="passenger"/>
    <trip id="veh191" depart="196.48" departLane="best" from="5672036#0" to="542258337#0" type="passenger"/>
    <trip id="veh192" depart="197.51" departLane="best" from="226041025#1" to="46538375#13" type="passenger"/>
    <trip id="veh193" depart="198.54" departLane="best" from="167922073#1" to="226041029#1" type="passenger"/>
    <trip id="veh195" depart="200.60" departLane="best" from="511699175" to="167922072#0" type="passenger"/>
    <trip id="veh196" depart="201.63" departLane="best" from="440122868" to="46482602#3" type="passenger"/>
    <trip id="veh197" depart="202.65" departLane="best" from="452322756#1" to="195743345" type="passenger"/>
    <trip id="veh198" depart="203.68" departLane="best" from="452322756#2" to="569345537#2" type="passenger"/>
    <trip id="veh199" depart="204.71" departLane="best" from="46522000#0" to="511699183#1" type="passenger"/>
    <trip id="veh200" depart="205.74" departLane="best" from="5671276#0" to="542259076#1" type="passenger"/>
    <trip id="veh201" depart="206.77" departLane="best" from="420907906#1" to="-167922072#1" type="passenger"/>
    <trip id="veh202" depart="207.80" departLane="best" from="5671115#4" to="569345541#1" type="passenger"/>
    <trip id="veh203" depart="208.83" departLane="best" from="452322756#2" to="542258337#2" type="passenger"/>
    <trip id="veh204" depart="209.86" departLane="best" from="196116976#0" to="196116976#7" type="passenger"/>
    <trip id="veh205" depart="210.88" departLane="best" from="438397345" to="194926851#4" type="passenger"/>
    <trip id="veh206" depart="211.91" departLane="best" from="46443656#7" to="194920158#9" type="passenger"/>
    <trip id="veh207" depart="212.94" departLane="best" from="46538335" to="-511699183#0" type="passenger"/>
    <trip id="veh208" depart="213.97" departLane="best" from="420908138#0" to="46521993" type="passenger"/>
    <trip id="veh209" depart="215.00" departLane="best" from="-542259076#1" to="46538375#14" type="passenger"/>
    <trip id="veh210" depart="216.03" departLane="best" from="127693103#0" to="420907908#2" type="passenger"/>
    <trip id="veh211" depart="217.06" departLane="best" from="196116976#0" to="420494981#0" type="passenger"/>
    <trip id="veh212" depart="218.09" departLane="best" from="542258337#0" to="420907908#2" type="passenger"/>
    <trip id="veh213" depart="219.11" departLane="best" from="542258060" to="5671115#3" type="passenger"/>
    <trip id="veh214" depart="220.14" departLane="best" from="226041025#2" to="167922073#2" type="passenger"/>
    <trip id="veh215" depart="221.17" departLane="best" from="-525729008#1" to="46482602#2" type="passenger"/>
    <trip id="veh216" depart="222.20" departLane="best" from="588157337#0" to="420907906#3" type="passenger"/>
    <trip id="veh218" depart="224.26" departLane="best" from="569345538#1" to="195743210#2" type="passenger"/>
    <trip id="veh220" depart="226.31" departLane="best" from="511699175" to="542259076#1" type="passenger"/>
    <trip id="veh221" depart="227.34" departLane="best" from="194926851#5" to="46522008#5" type="passenger"/>
    <trip id="veh223" depart="229.40" departLane="best" from="5670197#0" to="569345544" type="passenger"/>
    <trip id="veh224" depart="230.43" departLane="best" from="194920158#0" to="-511699183#0" type="passenger"/>
    <trip id="veh225" depart="231.46" departLane="best" from="511699183#0" to="167922073#0" type="passenger"/>
    <trip id="veh227" depart="233.52" departLane="best" from="194920158#0" to="542259076#1" type="passenger"/>
    <trip id="veh228" depart="234.54" departLane="best" from="5671115#3" to="46522008#3" type="passenger"/>
    <trip id="veh229" depart="235.57" departLane="best" from="194920158#11" to="569345547#2" type="passenger"/>
    <trip id="veh230" depart="236.60" departLane="best" from="5670114#0" to="420907906#2" type="passenger"/>
    <trip id="veh231" depart="237.63" departLane="best" from="458177130" to="420907908#1" type="passenger"/>
    <trip id="veh232" depart="238.66" departLane="best" from="464516471#7" to="420907906#0" type="passenger"/>
    <trip id="veh233" depart="239.69" departLane="best" from="5671115#3" to="5670867#1" type="passenger"/>
    <trip id="veh234" depart="240.72" departLane="best" from="194920158#0" to="569345543" type="passenger"/>
    <trip id="veh235" depart="241.75" departLane="best" from="46538375#0" to="5670867#1" type="passenger"/>
    <trip id="veh236" depart="242.77" departLane="best" from="511699175" to="452322756#3" type="passenger"/>
    <trip id="veh237" depart="243.80" departLane="best" from="226041027#4" to="5670225" type="passenger"/>
    <trip id="veh238" depart="244.83" departLane="best" from="46482602#2" to="46443656#9" type="passenger"/>
    <trip id="veh239" depart="245.86" departLane="best" from="458177130" to="542257982#1" type="passenger"/>
    <trip id="veh240" depart="246.89" departLane="best" from="226041027#3" to="5671276#9" type="passenger"/>
    <trip id="veh241" depart="247.92" departLane="best" from="5671115#0" to="167922074#0" type="passenger"/>
    <trip id="veh242" depart="248.95" departLane="best" from="5671709#0" to="226041027#1" type="passenger"/>
    <trip id="veh243" depart="249.98" departLane="best" from="46443656#6" to="46522008#6" type="passenger"/>
    <trip id="veh244" depart="251.00" departLane="best" from="420907906#1" to="-511699183#0" type="passenger"/>
    <trip id="veh245" depart="252.03" departLane="best" from="5671115#3" to="195743210#0" type="passenger"/>
    <trip id="veh246" depart="253.06" departLane="best" from="196116976#0" to="5670225" type="passenger"/>
    <trip id="veh247" depart="254.09" departLane="best" from="382740985#0" to="5672149#0" type="passenger"/>
    <trip id="veh248" depart="255.12" departLane="best" from="-167922072#2" to="569345540#3" type="passenger"/>
    <trip id="veh249" depart="256.15" departLane="best" from="167922073#3" to="542257008#1" type="passenger"/>
    <trip id="veh250" depart="257.18" departLane="best" from="464516471#2" to="542259076#0" type="passenger"/>
    <trip id="veh252" depart="259.23" departLane="best" from="464516471#2" to="5670225" type="passenger"/>
    <trip id="veh254" depart="261.29" departLane="best" from="46522000#0" to="46443656#8" type="passenger"/>
    <trip id="veh255" depart="262.32" departLane="best" from="542257982#0" to="420494981#1" type="passenger"/>
    <trip id="veh258" depart="265.41" departLane="best" from="46482602#10" to="542259076#1" type="passenger"/>
    <trip id="veh259" depart="266.43" departLane="best" from="194926854#0" to="196116976#13" type="passenger"/>
    <trip id="veh260" depart="267.46" departLane="best" from="464516471#0" to="542257430" type="passenger"/>
    <trip id="veh261" depart="268.49" departLane="best" from="569345543" to="464516471#7" type="passenger"/>
    <trip id="veh262" depart="269.52" departLane="best" from="194926854#0" to="-511699183#0" type="passenger"/>
    <trip id="veh263" depart="270.55" departLane="best" from="46482602#10" to="226041029#1" type="passenger"/>
    <trip id="veh264" depart="271.58" departLane="best" from="511699175" to="194920158#9" type="passenger"/>
    <trip id="veh265" depart="272.61" departLane="best" from="5671276#6" to="46443656#9" type="passenger"/>
    <trip id="veh266" depart="273.64" departLane="best" from="46443656#7" to="452322757" type="passenger"/>
    <trip id="veh267" depart="274.66" departLane="best" from="194926854#0" to="127693103#0" type="passenger"/>
    <trip id="veh268" depart="275.69" departLane="best" from="569345537#2" to="46443656#9" type="passenger"/>
    <trip id="veh269" depart="276.72" departLane="best" from="5670197#0" to="420908138#3" type="passenger"/>
    <trip id="veh270" depart="277.75" departLane="best" from="167922073#0" to="46522008#7" type="passenger"/>
    <trip id="veh271" depart="278.78" departLane="best" from="127693103#1" to="194926851#0" type="passenger"/>
    <trip id="veh272" depart="279.81" departLane="best" from="46482602#9" to="35027229#0" type="passenger"/>
    <trip id="veh274" depart="281.86" departLane="best" from="542258337#1" to="46522008#5" type="passenger"/>
    <trip id="veh275" depart="282.89" departLane="best" from="5670114#0" to="226041025#0" type="passenger"/>
    <trip id="veh276" depart="283.92" departLane="best" from="46482602#0" to="46443656#2" type="passenger"/>
    <trip id="veh277" depart="284.95" departLane="best" from="458177130" to="5672036#1" type="passenger"/>
    <trip id="veh278" depart="285.98" departLane="best" from="46538335" to="46522008#6" type="passenger"/>
    <trip id="veh280" depart="288.04" departLane="best" from="196116976#0" to="196116976#11" type="passenger"/>
    <trip id="veh281" depart="289.07" departLane="best" from="46538375#14" to="194926851#2" type="passenger"/>
    <trip id="veh282" depart="290.09" departLane="best" from="194926854#0" to="167922073#0" type="passenger"/>
    <trip id="veh283" depart="291.12" departLane="best" from="-167922072#0" to="46443656#2" type="passenger"/>
    <trip id="veh284" depart="292.15" departLane="best" from="46522008#1" to="226041030#1" type="passenger"/>
    <trip id="veh285" depart="293.18" departLane="best" from="196116976#12" to="542257008#1" type="passenger"/>
    <trip id="veh286" depart="294.21" departLane="best" from="511699175" to="46443656#3" type="passenger"/>
    <trip id="veh287" depart="295.24" departLane="best" from="500717410" to="569345537#5" type="passenger"/>
    <trip id="veh288" depart="296.27" departLane="best" from="5670114#0" to="46522008#7" type="passenger"/>
    <trip id="veh289" depart="297.30" departLane="best" from="46538375#0-AddedOffRampEdge" to="569345537#4" type="passenger"/>
    <trip id="veh290" depart="298.32" departLane="best" from="5670197#2" to="167922072#2" type="passenger"/>
    <trip id="veh291" depart="299.35" departLane="best" from="194926851#4" to="35027229#1" type="passenger"/>
    <trip id="veh292" depart="300.38" departLane="best" from="542257982#1" to="46521993" type="passenger"/>
    <trip id="veh294" depart="302.44" departLane="best" from="-542259076#1" to="452322756#3" type="passenger"/>
    <trip id="veh295" depart="303.47" departLane="best" from="35027229#1" to="226041027#3" type="passenger"/>
    <trip id="veh296" depart="304.50" departLane="best" from="167922074#1" to="569345543" type="passenger"/>
    <trip id="veh297" depart="305.53" departLane="best" from="5671115#0" to="46521993" type="passenger"/>
    <trip id="veh298" depart="306.55" departLane="best" from="46538375#7" to="226041029#0" type="passenger"/>
    <trip id="veh299" depart="307.58" departLane="best" from="-542259076#1" to="542258337#4" type="passenger"/>
    <trip id="veh300" depart="308.61" departLane="best" from="46443656#7" to="46538375#16" type="passenger"/>
    <trip id="veh301" depart="309.64" departLane="best" from="5672036#2" to="195743210#0" type="passenger"/>
    <trip id="veh302" depart="310.67" departLane="best" from="46522000#1" to="46538375#11" type="passenger"/>
    <trip id="veh305" depart="313.75" departLane="best" from="5670197#0" to="46482602#5" type="passenger"/>
    <trip id="veh306" depart="314.78" departLane="best" from="438397345" to="464516471#4" type="passenger"/>
    <trip id="veh307" depart="315.81" departLane="best" from="569345546" to="46538375#16" type="passenger"/>
    <trip id="veh308" depart="316.84" departLane="best" from="194926854#0" to="420907906#3" type="passenger"/>