<?xml version="1.0" encoding="UTF-8"?>

<!-- generated on Sat 30 Jun 2018 10:32:17 AM EDT by Netedit Version 0.32.0
<?xml version="1.0" encoding="UTF-8"?>

<configuration xmlns:xsi="http://www.w3.org/2001/XMLSchema-instance" xsi:noNamespaceSchemaLocation="http://sumo.dlr.de/xsd/netconvertConfiguration.xsd">

    <input>
        <sumo-net-file value="osm.net.xml"/>
    </input>

    <output>
        <output-file value="osm.net.xml"/>
        <output.street-names value="true"/>
    </output>

    <processing>
        <no-turnarounds value="true"/>
        <offset.disable-normalization value="true"/>
        <lefthand value="false"/>
        <junctions.corner-detail value="5"/>
        <rectangular-lane-cut value="false"/>
        <walkingareas value="false"/>
    </processing>

</configuration>
-->

<net version="0.27" junctionCornerDetail="5" xmlns:xsi="http://www.w3.org/2001/XMLSchema-instance" xsi:noNamespaceSchemaLocation="http://sumo.dlr.de/xsd/net_file.xsd">

    <location netOffset="-583603.14,-4507506.70" convBoundary="0.00,0.00,5204.01,8818.65" origBoundary="-74.010196,40.714238,-73.948142,40.793354" projParameter="+proj=utm +zone=18 +ellps=WGS84 +datum=WGS84 +units=m +no_defs"/>

    <type id="highway.bridleway" priority="1" numLanes="1" speed="2.78" allow="pedestrian" oneway="1" width="2.00"/>
    <type id="highway.bus_guideway" priority="1" numLanes="1" speed="8.33" allow="bus" oneway="1"/>
    <type id="highway.cycleway" priority="1" numLanes="1" speed="5.56" allow="bicycle" oneway="0" width="1.00"/>
    <type id="highway.footway" priority="1" numLanes="1" speed="2.78" allow="pedestrian" oneway="1" width="2.00"/>
    <type id="highway.ford" priority="1" numLanes="1" speed="2.78" allow="army" oneway="0"/>
    <type id="highway.living_street" priority="3" numLanes="1" speed="2.78" disallow="tram rail_urban rail rail_electric ship" oneway="0"/>
    <type id="highway.motorway" priority="13" numLanes="2" speed="44.44" allow="private emergency authority army vip passenger hov taxi bus coach delivery truck trailer motorcycle evehicle custom1 custom2" oneway="1"/>
    <type id="highway.motorway_link" priority="12" numLanes="1" speed="22.22" allow="private emergency authority army vip passenger hov taxi bus coach delivery truck trailer motorcycle evehicle custom1 custom2" oneway="1"/>
    <type id="highway.path" priority="1" numLanes="1" speed="2.78" allow="bicycle pedestrian" oneway="1" width="2.00"/>
    <type id="highway.pedestrian" priority="1" numLanes="1" speed="2.78" allow="pedestrian" oneway="1" width="2.00"/>
    <type id="highway.primary" priority="9" numLanes="2" speed="27.78" disallow="tram rail_urban rail rail_electric ship" oneway="0"/>
    <type id="highway.primary_link" priority="8" numLanes="1" speed="22.22" disallow="tram rail_urban rail rail_electric ship" oneway="0"/>
    <type id="highway.raceway" priority="14" numLanes="2" speed="83.33" allow="vip" oneway="0"/>
    <type id="highway.residential" priority="4" numLanes="1" speed="13.89" disallow="tram rail_urban rail rail_electric ship" oneway="0"/>
    <type id="highway.secondary" priority="7" numLanes="2" speed="27.78" disallow="tram rail_urban rail rail_electric ship" oneway="0"/>
    <type id="highway.secondary_link" priority="6" numLanes="1" speed="22.22" disallow="tram rail_urban rail rail_electric ship" oneway="0"/>
    <type id="highway.service" priority="2" numLanes="1" speed="5.56" allow="delivery bicycle pedestrian" oneway="0"/>
    <type id="highway.services" priority="1" numLanes="1" speed="8.33" disallow="tram rail_urban rail rail_electric ship" oneway="0"/>
    <type id="highway.stairs" priority="1" numLanes="1" speed="1.39" allow="pedestrian" oneway="1" width="2.00"/>
    <type id="highway.step" priority="1" numLanes="1" speed="1.39" allow="pedestrian" oneway="1" width="2.00"/>
    <type id="highway.steps" priority="1" numLanes="1" speed="1.39" allow="pedestrian" oneway="1" width="2.00"/>
    <type id="highway.tertiary" priority="6" numLanes="1" speed="22.22" disallow="tram rail_urban rail rail_electric ship" oneway="0"/>
    <type id="highway.tertiary_link" priority="5" numLanes="1" speed="22.22" disallow="tram rail_urban rail rail_electric ship" oneway="0"/>
    <type id="highway.track" priority="1" numLanes="1" speed="5.56" disallow="tram rail_urban rail rail_electric ship" oneway="0"/>
    <type id="highway.trunk" priority="11" numLanes="2" speed="27.78" disallow="tram rail_urban rail rail_electric bicycle pedestrian ship" oneway="0"/>
    <type id="highway.trunk_link" priority="10" numLanes="1" speed="22.22" disallow="tram rail_urban rail rail_electric bicycle pedestrian ship" oneway="0"/>
    <type id="highway.unclassified" priority="5" numLanes="1" speed="13.89" disallow="tram rail_urban rail rail_electric ship" oneway="0"/>
    <type id="highway.unsurfaced" priority="1" numLanes="1" speed="8.33" disallow="tram rail_urban rail rail_electric ship" oneway="0"/>
    <type id="railway.light_rail" priority="15" numLanes="1" speed="27.78" allow="rail_urban" oneway="1"/>
    <type id="railway.preserved" priority="15" numLanes="1" speed="27.78" allow="rail" oneway="1"/>
    <type id="railway.rail" priority="15" numLanes="1" speed="83.33" allow="rail rail_electric" oneway="1"/>
    <type id="railway.subway" priority="15" numLanes="1" speed="27.78" allow="rail_urban" oneway="1"/>
    <type id="railway.tram" priority="15" numLanes="1" speed="13.89" allow="tram" oneway="1"/>

    <edge id=":1289222431_0" function="internal">
        <lane id=":1289222431_0_0" index="0" disallow="tram rail_urban rail rail_electric ship" speed="11.18" length="5.00" shape="2187.08,4518.33 2182.68,4520.70"/>
        <lane id=":1289222431_0_1" index="1" disallow="tram rail_urban rail rail_electric ship" speed="11.18" length="5.00" shape="2185.51,4515.43 2181.11,4517.80"/>
    </edge>
    <edge id=":1289222431_2" function="internal">
        <lane id=":1289222431_2_0" index="0" disallow="tram rail_urban rail rail_electric ship" speed="11.18" length="4.82" shape="2185.51,4515.43 2184.03,4515.29 2183.28,4514.76 2183.25,4513.83 2183.95,4512.52"/>
    </edge>
    <edge id=":1289222431_3" function="internal">
        <lane id=":1289222431_3_0" index="0" disallow="tram rail_urban rail rail_electric ship" speed="11.18" length="5.00" shape="2177.98,4511.99 2182.38,4509.62"/>
        <lane id=":1289222431_3_1" index="1" disallow="tram rail_urban rail rail_electric ship" speed="11.18" length="5.00" shape="2179.55,4514.89 2183.95,4512.52"/>
    </edge>
    <edge id=":1289222431_5" function="internal">
        <lane id=":1289222431_5_0" index="0" disallow="tram rail_urban rail rail_electric ship" speed="11.18" length="4.82" shape="2179.55,4514.89 2181.03,4515.03 2181.78,4515.56 2181.81,4516.48 2181.11,4517.80"/>
    </edge>
    <edge id=":1695371014_0" function="internal">
        <lane id=":1695371014_0_0" index="0" disallow="tram rail_urban rail rail_electric ship" speed="9.73" length="4.20" shape="1399.72,4853.01 1398.94,4851.88 1398.14,4851.24 1397.29,4851.09 1396.42,4851.44"/>
    </edge>
    <edge id=":1695371014_1" function="internal">
        <lane id=":1695371014_1_0" index="0" allow="bicycle" speed="5.56" length="6.44" width="1.00" shape="1399.72,4853.01 1396.66,4847.34"/>
    </edge>
    <edge id=":1695371014_2" function="internal">
        <lane id=":1695371014_2_0" index="0" disallow="tram rail_urban rail rail_electric ship" speed="13.89" length="4.58" shape="1399.99,4848.59 1399.00,4849.51 1398.29,4850.12 1397.55,4850.68 1396.42,4851.44"/>
    </edge>
    <edge id=":1695371014_3" function="internal">
        <lane id=":1695371014_3_0" index="0" allow="bicycle" speed="9.73" length="4.30" width="1.00" shape="1399.99,4848.59 1399.11,4849.13 1398.26,4849.11 1397.45,4848.51 1396.66,4847.34"/>
    </edge>
    <edge id=":1745856010_0" function="internal">
        <lane id=":1745856010_0_0" index="0" disallow="tram rail_urban rail rail_electric ship" speed="11.18" length="5.00" shape="2599.12,5199.58 2603.52,5197.20"/>
    </edge>
    <edge id=":1745856081_0" function="internal">
        <lane id=":1745856081_0_0" index="0" disallow="tram rail_urban rail rail_electric ship" speed="27.78" length="4.94" shape="2642.24,5269.01 2637.92,5271.37"/>
        <lane id=":1745856081_0_1" index="1" disallow="tram rail_urban rail rail_electric ship" speed="27.78" length="4.94" shape="2640.68,5266.10 2636.31,5268.49"/>
    </edge>
    <edge id=":1745991210_0" function="internal">
        <lane id=":1745991210_0_0" index="0" disallow="tram rail_urban rail rail_electric ship" speed="13.89" length="5.01" shape="2223.28,5041.54 2227.69,5039.16"/>
    </edge>
    <edge id=":1745991212_0" function="internal">
        <lane id=":1745991212_0_0" index="0" disallow="tram rail_urban rail rail_electric ship" speed="27.78" length="5.02" shape="2265.39,5109.77 2260.97,5112.15"/>
    </edge>
    <edge id=":1745991214_0" function="internal">
        <lane id=":1745991214_0_0" index="0" disallow="tram rail_urban rail rail_electric ship" speed="27.78" length="5.00" shape="2297.77,5181.66 2302.18,5179.30"/>
        <lane id=":1745991214_0_1" index="1" disallow="tram rail_urban rail rail_electric ship" speed="27.78" length="5.00" shape="2299.33,5184.57 2303.73,5182.21"/>
    </edge>
    <edge id=":1752946324_0" function="internal">
        <lane id=":1752946324_0_0" index="0" disallow="tram rail_urban rail rail_electric ship" speed="11.18" length="5.00" shape="2029.36,4603.51 2024.96,4605.89"/>
        <lane id=":1752946324_0_1" index="1" disallow="tram rail_urban rail rail_electric ship" speed="11.18" length="5.00" shape="2027.79,4600.61 2023.39,4602.98"/>
    </edge>
    <edge id=":1752946324_2" function="internal">
        <lane id=":1752946324_2_0" index="0" disallow="tram rail_urban rail rail_electric ship" speed="11.18" length="2.41" shape="2027.79,4600.61 2026.31,4600.47 2025.56,4599.94"/>
    </edge>
    <edge id=":1752946324_6" function="internal">
        <lane id=":1752946324_6_0" index="0" speed="11.18" length="2.41" shape="2025.56,4599.94 2025.53,4599.02 2026.22,4597.71"/>
    </edge>
    <edge id=":1752946324_3" function="internal">
        <lane id=":1752946324_3_0" index="0" disallow="tram rail_urban rail rail_electric ship" speed="11.18" length="4.99" shape="2020.26,4597.17 2024.65,4594.80"/>
        <lane id=":1752946324_3_1" index="1" disallow="tram rail_urban rail rail_electric ship" speed="11.18" length="4.99" shape="2021.83,4600.08 2026.22,4597.71"/>
    </edge>
    <edge id=":1752946324_5" function="internal">
        <lane id=":1752946324_5_0" index="0" disallow="tram rail_urban rail rail_electric ship" speed="11.18" length="2.41" shape="2021.83,4600.08 2023.31,4600.22 2024.06,4600.75"/>
    </edge>
    <edge id=":1752946324_7" function="internal">
        <lane id=":1752946324_7_0" index="0" speed="11.18" length="2.41" shape="2024.06,4600.75 2024.09,4601.67 2023.39,4602.98"/>
    </edge>
    <edge id=":1752946328_0" function="internal">
        <lane id=":1752946328_0_0" index="0" disallow="tram rail_urban rail rail_electric ship" speed="13.89" length="5.00" shape="2067.99,4674.21 2063.58,4676.58"/>
    </edge>
    <edge id=":1758380526_0" function="internal">
        <lane id=":1758380526_0_0" index="0" disallow="tram rail_urban rail rail_electric ship" speed="8.07" length="7.85" shape="2034.31,5147.24 2034.02,5145.85 2034.62,5144.42 2036.10,5142.96 2038.47,5141.46"/>
    </edge>
    <edge id=":1758380526_1" function="internal">
        <lane id=":1758380526_1_0" index="0" allow="delivery bicycle pedestrian" speed="2.24" length="4.82" shape="2034.31,5147.24 2034.45,5145.76 2034.99,5145.00 2035.91,5144.98 2037.22,5145.69"/>
    </edge>
    <edge id=":1758380526_2" function="internal">
        <lane id=":1758380526_2_0" index="0" disallow="tram rail_urban rail rail_electric ship" speed="13.89" length="9.50" shape="2030.11,5145.97 2038.47,5141.46"/>
    </edge>
    <edge id=":1758380526_3" function="internal">
        <lane id=":1758380526_3_0" index="0" allow="delivery bicycle pedestrian" speed="8.07" length="7.86" shape="2030.11,5145.97 2032.67,5144.81 2034.71,5144.38 2036.23,5144.67 2037.22,5145.69"/>
    </edge>
    <edge id=":1758380528_0" function="internal">
        <lane id=":1758380528_0_0" index="0" disallow="tram rail_urban rail rail_electric ship" speed="27.78" length="9.50" shape="2076.23,5211.69 2067.86,5216.19"/>
    </edge>
    <edge id=":1758380528_1" function="internal">
        <lane id=":1758380528_1_0" index="0" allow="delivery bicycle pedestrian" speed="15.01" length="7.85" shape="2076.23,5211.69 2073.67,5212.84 2071.63,5213.28 2070.11,5212.99 2069.12,5211.98"/>
    </edge>
    <edge id=":1758380528_2" function="internal">
        <lane id=":1758380528_2_0" index="0" disallow="tram rail_urban rail rail_electric ship" speed="15.01" length="7.85" shape="2072.03,5210.42 2072.32,5211.81 2071.72,5213.23 2070.23,5214.69 2067.86,5216.19"/>
    </edge>
    <edge id=":1758380528_3" function="internal">
        <lane id=":1758380528_3_0" index="0" allow="delivery bicycle pedestrian" speed="2.24" length="4.82" shape="2072.03,5210.42 2071.88,5211.90 2071.35,5212.66 2070.43,5212.68 2069.12,5211.98"/>
    </edge>
    <edge id=":1762438249_0" function="internal">
        <lane id=":1762438249_0_0" index="0" disallow="tram rail_urban rail rail_electric ship" speed="11.18" length="5.00" shape="2284.62,4918.24 2280.22,4920.62"/>
    </edge>
    <edge id=":1762438252_0" function="internal">
        <lane id=":1762438252_0_0" index="0" disallow="tram rail_urban rail rail_electric ship" speed="27.78" length="5.00" shape="2242.05,4850.82 2246.45,4848.44"/>
    </edge>
    <edge id=":1828749426_0" function="internal">
        <lane id=":1828749426_0_0" index="0" disallow="tram rail_urban rail rail_electric ship" speed="11.18" length="7.18" shape="2384.57,5315.38 2390.89,5311.96"/>
    </edge>
    <edge id=":1828749427_0" function="internal">
        <lane id=":1828749427_0_0" index="0" disallow="tram rail_urban rail rail_electric ship" speed="27.78" length="7.52" shape="2429.63,5383.11 2423.01,5386.72"/>
        <lane id=":1828749427_0_1" index="1" disallow="tram rail_urban rail rail_electric ship" speed="27.78" length="7.52" shape="2428.03,5380.23 2421.45,5383.82"/>
    </edge>
    <edge id=":1828749428_0" function="internal">
        <lane id=":1828749428_0_0" index="0" disallow="tram rail_urban rail rail_electric ship" speed="13.89" length="7.09" shape="2353.21,5243.91 2346.96,5247.24"/>
    </edge>
    <edge id=":2176936521_0" function="internal">
        <lane id=":2176936521_0_0" index="0" disallow="tram rail_urban rail rail_electric ship" speed="27.78" length="5.00" shape="2353.49,4701.04 2349.09,4703.42"/>
    </edge>
    <edge id=":2176936535_0" function="internal">
        <lane id=":2176936535_0_0" index="0" disallow="tram rail_urban rail rail_electric ship" speed="27.78" length="5.00" shape="2385.39,4773.35 2389.78,4770.97"/>
    </edge>
    <edge id=":2351527463_0" function="internal">
        <lane id=":2351527463_0_0" index="0" allow="bicycle" speed="5.56" length="6.21" width="1.00" shape="1322.15,4709.20 1319.20,4703.73"/>
    </edge>
    <edge id=":2351527463_1" function="internal">
        <lane id=":2351527463_1_0" index="0" allow="bicycle" speed="9.73" length="4.16" width="1.00" shape="1322.42,4705.52 1321.56,4705.77 1320.73,4705.55 1319.95,4704.87 1319.20,4703.73"/>
    </edge>
    <edge id=":2351527466_0" function="internal">
        <lane id=":2351527466_0_0" index="0" allow="bicycle" speed="5.56" length="6.23" width="1.00" shape="1285.69,4639.72 1282.86,4634.18"/>
    </edge>
    <edge id=":2351527466_1" function="internal">
        <lane id=":2351527466_1_0" index="0" disallow="tram rail_urban rail rail_electric ship" speed="9.73" length="4.21" shape="1285.69,4639.72 1285.21,4638.44 1285.12,4637.39 1285.42,4636.56 1286.11,4635.97"/>
    </edge>
    <edge id=":2351527466_2" function="internal">
        <lane id=":2351527466_2_0" index="0" allow="bicycle" speed="9.73" length="4.18" width="1.00" shape="1282.45,4637.82 1283.19,4637.26 1283.50,4636.46 1283.39,4635.44 1282.86,4634.18"/>
    </edge>
    <edge id=":2351527466_3" function="internal">
        <lane id=":2351527466_3_0" index="0" disallow="tram rail_urban rail rail_electric ship" speed="13.89" length="4.10" shape="1282.45,4637.82 1286.11,4635.97"/>
    </edge>
    <edge id=":2351532356_0" function="internal">
        <lane id=":2351532356_0_0" index="0" disallow="tram rail_urban rail rail_electric ship" speed="16.67" length="4.24" shape="1552.31,5136.51 1551.54,5135.38 1550.73,5134.70 1549.87,5134.48 1548.97,5134.71"/>
    </edge>
    <edge id=":2351532356_1" function="internal">
        <lane id=":2351532356_1_0" index="0" allow="bicycle" speed="5.56" length="6.22" width="1.00" shape="1552.31,5136.51 1549.32,5131.05"/>
    </edge>
    <edge id=":2351532356_2" function="internal">
        <lane id=":2351532356_2_0" index="0" disallow="tram rail_urban rail rail_electric ship" speed="27.78" length="4.07" shape="1552.58,5132.83 1548.97,5134.71"/>
    </edge>
    <edge id=":2351532356_3" function="internal">
        <lane id=":2351532356_3_0" index="0" allow="bicycle" speed="16.67" length="4.18" width="1.00" shape="1552.58,5132.83 1551.71,5133.08 1550.88,5132.87 1550.08,5132.19 1549.32,5131.05"/>
    </edge>
    <edge id=":2351532361_0" function="internal">
        <lane id=":2351532361_0_0" index="0" allow="bicycle" speed="5.56" length="6.20" width="1.00" shape="1665.08,5346.06 1662.13,5340.61"/>
    </edge>
    <edge id=":2351532361_1" function="internal">
        <lane id=":2351532361_1_0" index="0" disallow="tram rail_urban rail rail_electric ship" speed="9.73" length="4.15" shape="1665.08,5346.06 1664.54,5344.81 1664.41,5343.78 1664.68,5342.97 1665.36,5342.39"/>
    </edge>
    <edge id=":2351532361_2" function="internal">
        <lane id=":2351532361_2_0" index="0" allow="bicycle" speed="9.73" length="4.15" width="1.00" shape="1661.84,5344.29 1662.51,5343.70 1662.79,5342.89 1662.66,5341.86 1662.13,5340.61"/>
    </edge>
    <edge id=":2351532361_3" function="internal">
        <lane id=":2351532361_3_0" index="0" disallow="tram rail_urban rail rail_electric ship" speed="13.89" length="4.01" shape="1661.84,5344.29 1665.36,5342.39"/>
    </edge>
    <edge id=":2351532369_0" function="internal">
        <lane id=":2351532369_0_0" index="0" allow="bicycle" speed="5.56" length="9.51" width="1.00" shape="1741.38,5488.14 1736.90,5479.76"/>
    </edge>
    <edge id=":2351532369_1" function="internal">
        <lane id=":2351532369_1_0" index="0" disallow="tram rail_urban rail rail_electric ship" speed="16.67" length="4.17" shape="1741.38,5488.14 1740.84,5486.89 1740.71,5485.86 1740.99,5485.05 1741.68,5484.46"/>
    </edge>
    <edge id=":2351532369_2" function="internal">
        <lane id=":2351532369_2_0" index="0" allow="bicycle" speed="16.67" length="4.17" width="1.00" shape="1736.58,5483.46 1737.26,5482.87 1737.54,5482.06 1737.42,5481.02 1736.90,5479.76"/>
    </edge>
    <edge id=":2351532369_3" function="internal">
        <lane id=":2351532369_3_0" index="0" disallow="tram rail_urban rail rail_electric ship" speed="27.78" length="4.02" shape="1736.58,5483.46 1740.12,5481.55"/>
        <lane id=":2351532369_3_1" index="1" disallow="tram rail_urban rail rail_electric ship" speed="27.78" length="4.02" shape="1738.14,5486.37 1741.68,5484.46"/>
    </edge>
    <edge id=":2351532371_0" function="internal">
        <lane id=":2351532371_0_0" index="0" disallow="tram rail_urban rail rail_electric ship" speed="8.37" length="4.17" shape="1627.38,5275.77 1626.63,5274.63 1625.83,5273.96 1625.00,5273.77 1624.13,5274.05"/>
    </edge>
    <edge id=":2351532371_1" function="internal">
        <lane id=":2351532371_1_0" index="0" allow="bicycle" speed="5.56" length="6.22" width="1.00" shape="1627.38,5275.77 1624.46,5270.27"/>
    </edge>
    <edge id=":2351532371_2" function="internal">
        <lane id=":2351532371_2_0" index="0" disallow="tram rail_urban rail rail_electric ship" speed="11.18" length="4.06" shape="1627.68,5272.07 1624.13,5274.05"/>
    </edge>
    <edge id=":2351532371_3" function="internal">
        <lane id=":2351532371_3_0" index="0" allow="bicycle" speed="8.37" length="4.15" width="1.00" shape="1627.68,5272.07 1626.82,5272.31 1625.99,5272.10 1625.21,5271.42 1624.46,5270.27"/>
    </edge>
    <edge id=":2351532373_0" function="internal">
        <lane id=":2351532373_0_0" index="0" disallow="tram rail_urban rail rail_electric ship" speed="16.67" length="4.18" shape="1703.83,5415.90 1703.13,5414.72 1702.37,5414.02 1701.54,5413.80 1700.66,5414.06"/>
    </edge>
    <edge id=":2351532373_1" function="internal">
        <lane id=":2351532373_1_0" index="0" allow="bicycle" speed="5.56" length="6.23" width="1.00" shape="1703.83,5415.90 1700.97,5410.36"/>
    </edge>
    <edge id=":2351532373_2" function="internal">
        <lane id=":2351532373_2_0" index="0" disallow="tram rail_urban rail rail_electric ship" speed="27.78" length="4.06" shape="1704.23,5412.13 1700.66,5414.06"/>
    </edge>
    <edge id=":2351532373_3" function="internal">
        <lane id=":2351532373_3_0" index="0" allow="bicycle" speed="16.67" length="4.16" width="1.00" shape="1704.23,5412.13 1703.37,5412.37 1702.55,5412.16 1701.74,5411.49 1700.97,5410.36"/>
    </edge>
    <edge id=":2351532375_0" function="internal">
        <lane id=":2351532375_0_0" index="0" allow="bicycle" speed="5.56" length="6.23" width="1.00" shape="1590.99,5206.80 1588.04,5201.32"/>
    </edge>
    <edge id=":2351532375_1" function="internal">
        <lane id=":2351532375_1_0" index="0" disallow="tram rail_urban rail rail_electric ship" speed="16.67" length="4.15" shape="1590.99,5206.80 1590.47,5205.54 1590.35,5204.51 1590.62,5203.70 1591.30,5203.11"/>
    </edge>
    <edge id=":2351532375_2" function="internal">
        <lane id=":2351532375_2_0" index="0" allow="bicycle" speed="16.67" length="4.18" width="1.00" shape="1587.65,5204.96 1588.39,5204.39 1588.70,5203.60 1588.58,5202.57 1588.04,5201.32"/>
    </edge>
    <edge id=":2351532375_3" function="internal">
        <lane id=":2351532375_3_0" index="0" disallow="tram rail_urban rail rail_electric ship" speed="27.78" length="4.09" shape="1587.65,5204.96 1591.30,5203.11"/>
    </edge>
    <edge id=":2351532382_0" function="internal">
        <lane id=":2351532382_0_0" index="0" disallow="tram rail_urban rail rail_electric ship" speed="8.37" length="4.24" shape="1439.35,4925.13 1438.60,4923.99 1437.80,4923.32 1436.95,4923.11 1436.04,4923.37"/>
    </edge>
    <edge id=":2351532382_1" function="internal">
        <lane id=":2351532382_1_0" index="0" allow="bicycle" speed="5.56" length="16.11" width="1.00" shape="1439.35,4925.13 1431.71,4910.94"/>
    </edge>
    <edge id=":2351532382_2" function="internal">
        <lane id=":2351532382_2_0" index="0" disallow="tram rail_urban rail rail_electric ship" speed="8.37" length="10.27" shape="1439.35,4925.13 1437.48,4921.31 1436.39,4918.46 1436.07,4916.56 1436.53,4915.63"/>
    </edge>
    <edge id=":2351532382_3" function="internal">
        <lane id=":2351532382_3_0" index="0" disallow="tram rail_urban rail rail_electric ship" speed="11.18" length="4.09" shape="1439.66,4921.44 1436.04,4923.37"/>
        <lane id=":2351532382_3_1" index="1" disallow="tram rail_urban rail rail_electric ship" speed="11.18" length="4.09" shape="1438.10,4918.53 1434.50,4920.45"/>
    </edge>
    <edge id=":2351532382_5" function="internal">
        <lane id=":2351532382_5_0" index="0" allow="bicycle" speed="8.37" length="2.20" width="1.00" shape="1438.10,4918.53 1437.06,4918.40 1436.21,4917.61"/>
    </edge>
    <edge id=":2351532382_6" function="internal">
        <lane id=":2351532382_6_0" index="0" disallow="tram rail_urban rail rail_electric ship" speed="11.18" length="2.41" shape="1438.10,4918.53 1436.62,4918.39 1435.86,4917.86"/>
    </edge>
    <edge id=":2351532382_11" function="internal">
        <lane id=":2351532382_11_0" index="0" speed="8.37" length="8.07" width="1.00" shape="1436.21,4917.61 1435.66,4917.09 1433.87,4914.61 1431.71,4910.94"/>
    </edge>
    <edge id=":2351532382_12" function="internal">
        <lane id=":2351532382_12_0" index="0" speed="11.18" length="2.41" shape="1435.86,4917.86 1435.83,4916.94 1436.53,4915.63"/>
    </edge>
    <edge id=":2351532382_7" function="internal">
        <lane id=":2351532382_7_0" index="0" allow="bicycle" speed="8.37" length="4.16" width="1.00" shape="1431.42,4914.61 1432.11,4914.03 1432.39,4913.22 1432.26,4912.19 1431.71,4910.94"/>
    </edge>
    <edge id=":2351532382_8" function="internal">
        <lane id=":2351532382_8_0" index="0" disallow="tram rail_urban rail rail_electric ship" speed="11.18" length="4.03" shape="1431.42,4914.61 1434.96,4912.72"/>
        <lane id=":2351532382_8_1" index="1" disallow="tram rail_urban rail rail_electric ship" speed="11.18" length="4.03" shape="1432.96,4917.53 1436.53,4915.63"/>
    </edge>
    <edge id=":2351532382_10" function="internal">
        <lane id=":2351532382_10_0" index="0" disallow="tram rail_urban rail rail_electric ship" speed="11.18" length="2.41" shape="1432.96,4917.53 1434.44,4917.69 1435.19,4918.22"/>
    </edge>
    <edge id=":2351532382_13" function="internal">
        <lane id=":2351532382_13_0" index="0" speed="11.18" length="2.41" shape="1435.19,4918.22 1435.21,4919.14 1434.50,4920.45"/>
    </edge>
    <edge id=":2351532386_0" function="internal">
        <lane id=":2351532386_0_0" index="0" disallow="tram rail_urban rail rail_electric ship" speed="9.73" length="4.15" shape="1476.77,4996.39 1476.02,4995.25 1475.23,4994.57 1474.41,4994.36 1473.54,4994.61"/>
    </edge>
    <edge id=":2351532386_1" function="internal">
        <lane id=":2351532386_1_0" index="0" allow="bicycle" speed="5.56" length="6.21" width="1.00" shape="1476.77,4996.39 1473.87,4990.90"/>
    </edge>
    <edge id=":2351532386_2" function="internal">
        <lane id=":2351532386_2_0" index="0" disallow="tram rail_urban rail rail_electric ship" speed="13.89" length="4.02" shape="1477.08,4992.70 1473.54,4994.61"/>
    </edge>
    <edge id=":2351532386_3" function="internal">
        <lane id=":2351532386_3_0" index="0" allow="bicycle" speed="9.73" length="4.15" width="1.00" shape="1477.08,4992.70 1476.22,4992.94 1475.39,4992.73 1474.61,4992.04 1473.87,4990.90"/>
    </edge>
    <edge id=":2351532388_0" function="internal">
        <lane id=":2351532388_0_0" index="0" allow="bicycle" speed="5.56" length="6.19" width="1.00" shape="1359.46,4776.90 1356.51,4771.45"/>
    </edge>
    <edge id=":2351532388_1" function="internal">
        <lane id=":2351532388_1_0" index="0" disallow="tram rail_urban rail rail_electric ship" speed="9.73" length="4.15" shape="1359.46,4776.90 1358.94,4775.64 1358.81,4774.61 1359.09,4773.80 1359.76,4773.22"/>
    </edge>
    <edge id=":2351532390_0" function="internal">
        <lane id=":2351532390_0_0" index="0" allow="bicycle" speed="5.56" length="6.20" width="1.00" shape="1514.10,5066.39 1511.16,5060.93"/>
    </edge>
    <edge id=":2351532390_1" function="internal">
        <lane id=":2351532390_1_0" index="0" disallow="tram rail_urban rail rail_electric ship" speed="9.73" length="4.15" shape="1514.10,5066.39 1513.57,5065.14 1513.43,5064.11 1513.71,5063.30 1514.39,5062.72"/>
    </edge>
    <edge id=":2351532390_2" function="internal">
        <lane id=":2351532390_2_0" index="0" allow="bicycle" speed="9.73" length="4.15" width="1.00" shape="1510.87,5064.62 1511.54,5064.03 1511.82,5063.22 1511.69,5062.19 1511.16,5060.93"/>
    </edge>
    <edge id=":2351532390_3" function="internal">
        <lane id=":2351532390_3_0" index="0" disallow="tram rail_urban rail rail_electric ship" speed="13.89" length="4.00" shape="1510.87,5064.62 1514.39,5062.72"/>
    </edge>
    <edge id=":2435108462_0" function="internal">
        <lane id=":2435108462_0_0" index="0" disallow="tram rail_urban rail rail_electric ship" speed="27.78" length="3.00" shape="2134.71,5269.06 2137.35,5267.64"/>
        <lane id=":2435108462_0_1" index="1" disallow="tram rail_urban rail rail_electric ship" speed="27.78" length="3.00" shape="2136.27,5271.96 2138.91,5270.54"/>
    </edge>
    <edge id=":2639531766_0" function="internal">
        <lane id=":2639531766_0_0" index="0" disallow="tram rail_urban rail rail_electric ship" speed="16.67" length="5.04" shape="1880.08,5042.93 1880.86,5044.07 1881.82,5044.67 1882.96,5044.73 1884.26,5044.26"/>
    </edge>
    <edge id=":2639531766_1" function="internal">
        <lane id=":2639531766_1_0" index="0" allow="delivery bicycle pedestrian" speed="5.56" length="4.82" shape="1880.08,5042.93 1879.89,5044.41 1879.34,5045.15 1878.42,5045.15 1877.12,5044.41"/>
    </edge>
    <edge id=":2639531766_2" function="internal">
        <lane id=":2639531766_2_0" index="0" allow="delivery bicycle pedestrian" speed="16.67" length="5.13" shape="1875.89,5048.77 1876.98,5047.95 1877.54,5046.95 1877.59,5045.77 1877.12,5044.41"/>
    </edge>
    <edge id=":2639531766_3" function="internal">
        <lane id=":2639531766_3_0" index="0" disallow="tram rail_urban rail rail_electric ship" speed="27.78" length="9.50" shape="1875.89,5048.77 1884.26,5044.26"/>
    </edge>
    <edge id=":2639531768_0" function="internal">
        <lane id=":2639531768_0_0" index="0" disallow="tram rail_urban rail rail_electric ship" speed="8.37" length="3.95" shape="1809.31,5046.18 1810.07,5046.02 1810.81,5046.29 1811.56,5047.00 1812.29,5048.14"/>
    </edge>
    <edge id=":2639531768_1" function="internal">
        <lane id=":2639531768_1_0" index="0" disallow="tram rail_urban rail rail_electric ship" speed="8.37" length="3.85" shape="1809.31,5046.18 1808.78,5046.67 1808.61,5047.41 1808.80,5048.40 1809.36,5049.64"/>
    </edge>
    <edge id=":2639531768_2" function="internal">