<?xml version="1.0" encoding="UTF-8"?>

<!-- generated on 11/12/18 21:06:25 by Eclipse SUMO netedit Version 1.0.1
<configuration xmlns:xsi="http://www.w3.org/2001/XMLSchema-instance" xsi:noNamespaceSchemaLocation="http://sumo.dlr.de/xsd/netconvertConfiguration.xsd">

    <input>
        <sumo-net-file value="L:\project\sumo_prj\RLTL\scenarios\LuSTScenario-master\scenario\deploymentMap\26640\map.net.xml"/>
    </input>

    <output>
        <output-file value="L:\project\sumo_prj\RLTL\scenarios\LuSTScenario-master\scenario\deploymentMap\26640\map.net.xml"/>
    </output>

    <processing>
        <offset.disable-normalization value="true"/>
        <lefthand value="false"/>
    </processing>

    <junctions>
        <no-turnarounds value="true"/>
        <junctions.corner-detail value="5"/>
        <junctions.limit-turn-speed value="5.5"/>
        <rectangular-lane-cut value="false"/>
    </junctions>

    <pedestrian>
        <walkingareas value="false"/>
    </pedestrian>

</configuration>
-->

<net version="1.0" junctionCornerDetail="5" limitTurnSpeed="5.50" xmlns:xsi="http://www.w3.org/2001/XMLSchema-instance" xsi:noNamespaceSchemaLocation="http://sumo.dlr.de/xsd/net_file.xsd">

    <location netOffset="500.00,500.00" convBoundary="0.00,0.00,1000.00,1000.00" origBoundary="-500.00,-500.00,500.00,500.00" projParameter="!"/>

    <edge id=":0_0" function="internal">
        <lane id=":0_0_0" index="0" speed="6.51" length="9.03" shape="495.20,513.60 494.85,511.15 493.80,509.40 492.05,508.35 489.60,508.00"/>
    </edge>
    <edge id=":0_1" function="internal">
        <lane id=":0_1_0" index="0" speed="13.89" length="27.20" shape="498.40,513.60 498.40,486.40"/>
    </edge>
    <edge id=":0_2" function="internal">
        <lane id=":0_2_0" index="0" speed="9.84" length="8.68" shape="498.40,513.60 499.15,506.95 500.00,505.16"/>
    </edge>
    <edge id=":0_16" function="internal">
        <lane id=":0_16_0" index="0" speed="9.84" length="13.32" shape="500.00,505.16 501.40,502.20 505.15,499.35 510.40,498.40"/>
    </edge>
    <edge id=":0_3" function="internal">
        <lane id=":0_3_0" index="0" speed="6.51" length="9.03" shape="510.40,508.00 507.95,508.35 506.20,509.40 505.15,511.15 504.80,513.60"/>
    </edge>
    <edge id=":0_4" function="internal">
        <lane id=":0_4_0" index="0" speed="13.89" length="20.80" shape="510.40,508.00 489.60,508.00"/>
        <lane id=":0_4_1" index="1" speed="13.89" length="20.80" shape="510.40,504.80 489.60,504.80"/>
        <lane id=":0_4_2" index="2" speed="13.89" length="20.80" shape="510.40,501.60 489.60,501.60"/>
    </edge>
    <edge id=":0_7" function="internal">
        <lane id=":0_7_0" index="0" speed="9.84" length="6.41" shape="510.40,501.60 505.15,500.65 504.29,500.00"/>
    </edge>
    <edge id=":0_17" function="internal">
        <lane id=":0_17_0" index="0" speed="9.84" length="15.58" shape="504.29,500.00 501.40,497.80 499.15,493.05 498.40,486.40"/>
    </edge>
    <edge id=":0_8" function="internal">
        <lane id=":0_8_0" index="0" speed="6.51" length="9.03" shape="504.80,486.40 505.15,488.85 506.20,490.60 507.95,491.65 510.40,492.00"/>
    </edge>
    <edge id=":0_9" function="internal">
        <lane id=":0_9_0" index="0" speed="13.89" length="27.20" shape="501.60,486.40 501.60,513.60"/>
    </edge>
    <edge id=":0_10" function="internal">
        <lane id=":0_10_0" index="0" speed="9.84" length="8.68" shape="501.60,486.40 500.85,493.05 500.00,494.84"/>
    </edge>
    <edge id=":0_18" function="internal">
        <lane id=":0_18_0" index="0" speed="9.84" length="13.32" shape="500.00,494.84 498.60,497.80 494.85,500.65 489.60,501.60"/>
    </edge>
    <edge id=":0_11" function="internal">
        <lane id=":0_11_0" index="0" speed="6.51" length="9.03" shape="489.60,492.00 492.05,491.65 493.80,490.60 494.85,488.85 495.20,486.40"/>
    </edge>
    <edge id=":0_12" function="internal">
        <lane id=":0_12_0" index="0" speed="13.89" length="20.80" shape="489.60,492.00 510.40,492.00"/>
        <lane id=":0_12_1" index="1" speed="13.89" length="20.80" shape="489.60,495.20 510.40,495.20"/>
        <lane id=":0_12_2" index="2" speed="13.89" length="20.80" shape="489.60,498.40 510.40,498.40"/>
    </edge>
    <edge id=":0_15" function="internal">
        <lane id=":0_15_0" index="0" speed="9.84" length="6.41" shape="489.60,498.40 494.85,499.35 495.71,500.00"/>
    </edge>
    <edge id=":0_19" function="internal">
        <lane id=":0_19_0" index="0" speed="9.84" length="15.58" shape="495.71,500.00 498.60,502.20 500.85,506.95 501.60,513.60"/>
    </edge>
    <edge id=":east_0" function="internal">
        <lane id=":east_0_0" index="0" speed="3.65" length="4.67" shape="1000.00,498.40 1001.20,499.20 1001.60,500.00 1001.20,500.80 1000.00,501.60"/>
    </edge>
    <edge id=":north_0" function="internal">
        <lane id=":north_0_0" index="0" speed="3.65" length="4.67" shape="501.60,1000.00 500.80,1001.20 500.00,1001.60 499.20,1001.20 498.40,1000.00"/>
    </edge>
    <edge id=":south_0" function="internal">
        <lane id=":south_0_0" index="0" speed="3.65" length="4.67" shape="498.40,0.00 499.20,-1.20 500.00,-1.60 500.80,-1.20 501.60,0.00"/>
    </edge>
    <edge id=":west_0" function="internal">
        <lane id=":west_0_0" index="0" speed="3.65" length="4.67" shape="0.00,501.60 -1.20,500.80 -1.60,500.00 -1.20,499.20 0.00,498.40"/>
    </edge>

    <edge id="east_in" from="east" to="0" priority="9">
        <lane id="east_in_0" index="0" speed="13.89" length="489.60" shape="1000.00,508.00 510.40,508.00"/>
        <lane id="east_in_1" index="1" speed="13.89" length="489.60" shape="1000.00,504.80 510.40,504.80"/>
        <lane id="east_in_2" index="2" speed="13.89" length="489.60" shape="1000.00,501.60 510.40,501.60"/>
    </edge>
    <edge id="east_out" from="0" to="east" priority="9">
        <lane id="east_out_0" index="0" speed="13.89" length="489.60" shape="510.40,492.00 1000.00,492.00"/>
        <lane id="east_out_1" index="1" speed="13.89" length="489.60" shape="510.40,495.20 1000.00,495.20"/>
        <lane id="east_out_2" index="2" speed="13.89" length="489.60" shape="510.40,498.40 1000.00,498.40"/>
    </edge>
    <edge id="north_in" from="north" to="0" priority="9">
        <lane id="north_in_0" index="0" speed="13.89" length="486.40" shape="495.20,1000.00 495.20,513.60"/>
        <lane id="north_in_1" index="1" speed="13.89" length="486.40" shape="498.40,1000.00 498.40,513.60"/>
    </edge>
    <edge id="north_out" from="0" to="north" priority="9">
        <lane id="north_out_0" index="0" speed="13.89" length="486.40" shape="504.80,513.60 504.80,1000.00"/>
        <lane id="north_out_1" index="1" speed="13.89" length="486.40" shape="501.60,513.60 501.60,1000.00"/>
    </edge>
    <edge id="south_in" from="south" to="0" priority="9">
        <lane id="south_in_0" index="0" speed="13.89" length="486.40" shape="504.80,0.00 504.80,486.40"/>
        <lane id="south_in_1" index="1" speed="13.89" length="486.40" shape="501.60,0.00 501.60,486.40"/>
    </edge>
    <edge id="south_out" from="0" to="south" priority="9">
        <lane id="south_out_0" index="0" speed="13.89" length="486.40" shape="495.20,486.40 495.20,0.00"/>
        <lane id="south_out_1" index="1" speed="13.89" length="486.40" shape="498.40,486.40 498.40,0.00"/>
    </edge>
    <edge id="west_in" from="west" to="0" priority="9">
        <lane id="west_in_0" index="0" speed="13.89" length="489.60" shape="0.00,492.00 489.60,492.00"/>
        <lane id="west_in_1" index="1" speed="13.89" length="489.60" shape="0.00,495.20 489.60,495.20"/>
        <lane id="west_in_2" index="2" speed="13.89" length="489.60" shape="0.00,498.40 489.60,498.40"/>
    </edge>
    <edge id="west_out" from="0" to="west" priority="9">
        <lane id="west_out_0" index="0" speed="13.89" length="489.60" shape="489.60,508.00 0.00,508.00"/>
        <lane id="west_out_1" index="1" speed="13.89" length="489.60" shape="489.60,504.80 0.00,504.80"/>
        <lane id="west_out_2" index="2" speed="13.89" length="489.60" shape="489.60,501.60 0.00,501.60"/>
    </edge>

    <tlLogic id="0" type="static" programID="0" offset="0">
        <phase duration="42" state="rrrGGGGgrrrGGGGg"/>
        <phase duration="3"  state="rrryyyygrrryyyyg"/>
        <phase duration="42" state="rrrrrrrGrrrrrrrG"/>
        <phase duration="3"  state="rrrrrrryrrrrrrry"/>
        <phase duration="30" state="GGgrrrrrGGgrrrrr"/>
        <phase duration="3"  state="yygrrrrryygrrrrr"/>
        <phase duration="10" state="rrGrrrrrrrGrrrrr"/>
        <phase duration="3"  state="rryrrrrrrryrrrrr"/>
    </tlLogic>

    <junction id="0" type="traffic_light" x="500.00" y="500.00" incLanes="north_in_0 north_in_1 east_in_0 east_in_1 east_in_2 south_in_0 south_in_1 west_in_0 west_in_1 west_in_2" intLanes=":0_0_0 :0_1_0 :0_16_0 :0_3_0 :0_4_0 :0_4_1 :0_4_2 :0_17_0 :0_8_0 :0_9_0 :0_18_0 :0_11_0 :0_12_0 :0_12_1 :0_12_2 :0_19_0" shape="493.60,513.60 506.40,513.60 506.84,511.38 507.40,510.60 508.18,510.04 509.18,509.71 510.40,509.60 510.40,490.40 508.18,489.96 507.40,489.40 506.84,488.62 506.51,487.62 506.40,486.40 493.60,486.40 493.16,488.62 492.60,489.40 491.82,489.96 490.82,490.29 489.60,490.40 489.60,509.60 491.82,510.04 492.60,510.60 493.16,511.38 493.49,512.38">
        <request index="0"  response="0000000001110000" foes="0000010001110000" cont="0"/>
        <request index="1"  response="1111100011110000" foes="1111110011110000" cont="0"/>
        <request index="2"  response="1111001111110000" foes="1111001111110000" cont="1"/>
        <request index="3"  response="0000000000000000" foes="1000001000000000" cont="0"/>
        <request index="4"  response="0000010000000100" foes="1000011000000111" cont="0"/>
        <request index="5"  response="0000010000000100" foes="1000011000000111" cont="0"/>
        <request index="6"  response="0000010000000100" foes="1000011000000111" cont="0"/>
        <request index="7"  response="0111110000000100" foes="0111111000000110" cont="1"/>
        <request index="8"  response="0111000000000000" foes="0111000000000100" cont="0"/>
        <request index="9"  response="1111000011111000" foes="1111000011111100" cont="0"/>
        <request index="10" response="1111000011110011" foes="1111000011110011" cont="1"/>
        <request index="11" response="0000000000000000" foes="0000000010000010" cont="0"/>
        <request index="12" response="0000010000000100" foes="0000011110000110" cont="0"/>
        <request index="13" response="0000010000000100" foes="0000011110000110" cont="0"/>
        <request index="14" response="0000010000000100" foes="0000011110000110" cont="0"/>
        <request index="15" response="0000010001111100" foes="0000011001111110" cont="1"/>
    </junction>
    <junction id="east" type="priority" x="1000.00" y="500.00" incLanes="east_out_0 east_out_1 east_out_2" intLanes=":east_0_0" shape="1000.00,500.00 1000.00,490.40 1000.00,500.00">
        <request index="0" response="0" foes="0" cont="0"/>
    </junction>
    <junction id="north" type="priority" x="500.00" y="1000.00" incLanes="north_out_0 north_out_1" intLanes=":north_0_0" shape="500.00,1000.00 506.40,1000.00 500.00,1000.00">
        <request index="0" response="0" foes="0" cont="0"/>
    </junction>
    <junction id="south" type="priority" x="500.00" y="0.00" incLanes="south_out_0 south_out_1" intLanes=":south_0_0" shape="500.00,0.00 493.60,0.00 500.00,0.00">
        <request index="0" response="0" foes="0" cont="0"/>
    </junction>
    <junction id="west" type="priority" x="0.00" y="500.00" incLanes="west_out_0 west_out_1 west_out_2" intLanes=":west_0_0" shape="0.00,500.00 0.00,509.60 0.00,500.00">
        <request index="0" response="0" foes="0" cont="0"/>
    </junction>

    <junction id=":0_16_0" type="internal" x="500.00" y="505.16" incLanes=":0_2_0 south_in_0 south_in_1" intLanes=":0_4_0 :0_4_1 :0_4_2 :0_7_0 :0_8_0 :0_9_0 :0_12_0 :0_12_1 :0_12_2 :0_15_0"/>
    <junction id=":0_17_0" type="internal" x="504.29" y="500.00" incLanes=":0_7_0 west_in_0 west_in_1 west_in_2" intLanes=":0_1_0 :0_2_0 :0_9_0 :0_10_0 :0_11_0 :0_12_0 :0_12_1 :0_12_2"/>
    <junction id=":0_18_0" type="internal" x="500.00" y="494.84" incLanes=":0_10_0 north_in_0 north_in_1" intLanes=":0_0_0 :0_1_0 :0_4_0 :0_4_1 :0_4_2 :0_7_0 :0_12_0 :0_12_1 :0_12_2 :0_15_0"/>
    <junction id=":0_19_0" type="internal" x="495.71" y="500.00" incLanes=":0_15_0 east_in_0 east_in_1 east_in_2" intLanes=":0_1_0 :0_2_0 :0_3_0 :0_4_0 :0_4_1 :0_4_2 :0_9_0 :0_10_0"/>

    <connection from="east_in" to="north_out" fromLane="0" toLane="0" via=":0_3_0" tl="0" linkIndex="3" dir="r" state="O"/>
    <connection from="east_in" to="west_out" fromLane="0" toLane="0" via=":0_4_0" tl="0" linkIndex="4" dir="s" state="O"/>
    <connection from="east_in" to="west_out" fromLane="1" toLane="1" via=":0_4_1" tl="0" linkIndex="5" dir="s" state="O"/>
    <connection from="east_in" to="west_out" fromLane="2" toLane="2" via=":0_4_2" tl="0" linkIndex="6" dir="s" state="O"/>
    <connection from="east_in" to="south_out" fromLane="2" toLane="1" via=":0_7_0" tl="0" linkIndex="7" dir="l" state="o"/>
    <connection from="east_out" to="east_in" fromLane="2" toLane="2" via=":east_0_0" dir="t" state="M"/>
    <connection from="north_in" to="west_out" fromLane="0" toLane="0" via=":0_0_0" tl="0" linkIndex="0" dir="r" state="o"/>
    <connection from="north_in" to="south_out" fromLane="1" toLane="1" via=":0_1_0" tl="0" linkIndex="1" dir="s" state="o"/>
    <connection from="north_in" to="east_out" fromLane="1" toLane="2" via=":0_2_0" tl="0" linkIndex="2" dir="l" state="o"/>
    <connection from="north_out" to="north_in" fromLane="1" toLane="1" via=":north_0_0" dir="t" state="M"/>
    <connection from="south_in" to="east_out" fromLane="0" toLane="0" via=":0_8_0" tl="0" linkIndex="8" dir="r" state="o"/>
    <connection from="south_in" to="north_out" fromLane="1" toLane="1" via=":0_9_0" tl="0" linkIndex="9" dir="s" state="o"/>
    <connection from="south_in" to="west_out" fromLane="1" toLane="2" via=":0_10_0" tl="0" linkIndex="10" dir="l" state="o"/>
    <connection from="south_out" to="south_in" fromLane="1" toLane="1" via=":south_0_0" dir="t" state="M"/>
    <connection from="west_in" to="south_out" fromLane="0" toLane="0" via=":0_11_0" tl="0" linkIndex="11" dir="r" state="O"/>
    <connection from="west_in" to="east_out" fromLane="0" toLane="0" via=":0_12_0" tl="0" linkIndex="12" dir="s" state="O"/>
    <connection from="west_in" to="east_out" fromLane="1" toLane="1" via=":0_12_1" tl="0" linkIndex="13" dir="s" state="O"/>
    <connection from="west_in" to="east_out" fromLane="2" toLane="2" via=":0_12_2" tl="0" linkIndex="14" dir="s" state="O"/>
    <connection from="west_in" to="north_out" fromLane="2" toLane="1" via=":0_15_0" tl="0" linkIndex="15" dir="l" state="o"/>
    <connection from="west_out" to="west_in" fromLane="2" toLane="2" via=":west_0_0" dir="t" state="M"/>

    <connection from=":0_0" to="west_out" fromLane="0" toLane="0" dir="r" state="M"/>
    <connection from=":0_1" to="south_out" fromLane="0" toLane="1" dir="s" state="M"/>
    <connection from=":0_2" to="east_out" fromLane="0" toLane="2" via=":0_16_0" dir="l" state="m"/>
    <connection from=":0_16" to="east_out" fromLane="0" toLane="2" dir="l" state="M"/>
    <connection from=":0_3" to="north_out" fromLane="0" toLane="0" dir="r" state="M"/>
    <connection from=":0_4" to="west_out" fromLane="0" toLane="0" dir="s" state="M"/>
    <connection from=":0_4" to="west_out" fromLane="1" toLane="1" dir="s" state="M"/>
    <connection from=":0_4" to="west_out" fromLane="2" toLane="2" dir="s" state="M"/>
    <connection from=":0_7" to="south_out" fromLane="0" toLane="1" via=":0_17_0" dir="l" state="m"/>
    <connection from=":0_17" to="south_out" fromLane="0" toLane="1" dir="l" state="M"/>
    <connection from=":0_8" to="east_out" fromLane="0" toLane="0" dir="r" state="M"/>
    <connection from=":0_9" to="north_out" fromLane="0" toLane="1" dir="s" state="M"/>
    <connection from=":0_10" to="west_out" fromLane="0" toLane="2" via=":0_18_0" dir="l" state="m"/>
    <connection from=":0_18" to="west_out" fromLane="0" toLane="2" dir="l" state="M"/>
    <connection from=":0_11" to="south_out" fromLane="0" toLane="0" dir="r" state="M"/>
    <connection from=":0_12" to="east_out" fromLane="0" toLane="0" dir="s" state="M"/>
    <connection from=":0_12" to="east_out" fromLane="1" toLane="1" dir="s" state="M"/>
    <connection from=":0_12" to="east_out" fromLane="2" toLane="2" dir="s" state="M"/>
    <connection from=":0_15" to="north_out" fromLane="0" toLane="1" via=":0_19_0" dir="l" state="m"/>
    <connection from=":0_19" to="north_out" fromLane="0" toLane="1" dir="l" state="M"/>
    <connection from=":east_0" to="east_in" fromLane="0" toLane="2" dir="t" state="M"/>
    <connection from=":north_0" to="north_in" fromLane="0" toLane="1" dir="t" state="M"/>
    <connection from=":south_0" to="south_in" fromLane="0" toLane="1" dir="t" state="M"/>
    <connection from=":west_0" to="west_in" fromLane="0" toLane="2" dir="t" state="M"/>

</net>
