<?xml version="1.0" encoding="UTF-8"?>

<!-- generated on Sat 30 Jun 2018 02:37:40 AM EDT by Netedit Version 0.32.0
<?xml version="1.0" encoding="UTF-8"?>

<configuration xmlns:xsi="http://www.w3.org/2001/XMLSchema-instance" xsi:noNamespaceSchemaLocation="http://sumo.dlr.de/xsd/netconvertConfiguration.xsd">

    <input>
        <sumo-net-file value="osm.net.xml"/>
    </input>

    <output>
        <output-file value="osm.net.xml"/>
        <output.street-names value="true"/>
    </output>

    <processing>
        <no-turnarounds value="true"/>
        <offset.disable-normalization value="true"/>
        <lefthand value="false"/>
        <junctions.corner-detail value="5"/>
        <rectangular-lane-cut value="false"/>
        <walkingareas value="false"/>
    </processing>

</configuration>
-->

<net version="0.27" junctionCornerDetail="5" xmlns:xsi="http://www.w3.org/2001/XMLSchema-instance" xsi:noNamespaceSchemaLocation="http://sumo.dlr.de/xsd/net_file.xsd">

    <location netOffset="-583603.14,-4507506.70" convBoundary="0.00,0.00,5204.01,11176.94" origBoundary="-74.010196,40.714238,-73.948142,40.814522" projParameter="+proj=utm +zone=18 +ellps=WGS84 +datum=WGS84 +units=m +no_defs"/>

    <type id="highway.bridleway" priority="1" numLanes="1" speed="2.78" allow="pedestrian" oneway="1" width="2.00"/>
    <type id="highway.bus_guideway" priority="1" numLanes="1" speed="8.33" allow="bus" oneway="1"/>
    <type id="highway.cycleway" priority="1" numLanes="1" speed="5.56" allow="bicycle" oneway="0" width="1.00"/>
    <type id="highway.footway" priority="1" numLanes="1" speed="2.78" allow="pedestrian" oneway="1" width="2.00"/>
    <type id="highway.ford" priority="1" numLanes="1" speed="2.78" allow="army" oneway="0"/>
    <type id="highway.living_street" priority="3" numLanes="1" speed="2.78" disallow="tram rail_urban rail rail_electric ship" oneway="0"/>
    <type id="highway.motorway" priority="13" numLanes="2" speed="44.44" allow="private emergency authority army vip passenger hov taxi bus coach delivery truck trailer motorcycle evehicle custom1 custom2" oneway="1"/>
    <type id="highway.motorway_link" priority="12" numLanes="1" speed="22.22" allow="private emergency authority army vip passenger hov taxi bus coach delivery truck trailer motorcycle evehicle custom1 custom2" oneway="1"/>
    <type id="highway.path" priority="1" numLanes="1" speed="2.78" allow="bicycle pedestrian" oneway="1" width="2.00"/>
    <type id="highway.pedestrian" priority="1" numLanes="1" speed="2.78" allow="pedestrian" oneway="1" width="2.00"/>
    <type id="highway.primary" priority="9" numLanes="2" speed="27.78" disallow="tram rail_urban rail rail_electric ship" oneway="0"/>
    <type id="highway.primary_link" priority="8" numLanes="1" speed="22.22" disallow="tram rail_urban rail rail_electric ship" oneway="0"/>
    <type id="highway.raceway" priority="14" numLanes="2" speed="83.33" allow="vip" oneway="0"/>
    <type id="highway.residential" priority="4" numLanes="1" speed="13.89" disallow="tram rail_urban rail rail_electric ship" oneway="0"/>
    <type id="highway.secondary" priority="7" numLanes="2" speed="27.78" disallow="tram rail_urban rail rail_electric ship" oneway="0"/>
    <type id="highway.secondary_link" priority="6" numLanes="1" speed="22.22" disallow="tram rail_urban rail rail_electric ship" oneway="0"/>
    <type id="highway.service" priority="2" numLanes="1" speed="5.56" allow="delivery bicycle pedestrian" oneway="0"/>
    <type id="highway.services" priority="1" numLanes="1" speed="8.33" disallow="tram rail_urban rail rail_electric ship" oneway="0"/>
    <type id="highway.stairs" priority="1" numLanes="1" speed="1.39" allow="pedestrian" oneway="1" width="2.00"/>
    <type id="highway.step" priority="1" numLanes="1" speed="1.39" allow="pedestrian" oneway="1" width="2.00"/>
    <type id="highway.steps" priority="1" numLanes="1" speed="1.39" allow="pedestrian" oneway="1" width="2.00"/>
    <type id="highway.tertiary" priority="6" numLanes="1" speed="22.22" disallow="tram rail_urban rail rail_electric ship" oneway="0"/>
    <type id="highway.tertiary_link" priority="5" numLanes="1" speed="22.22" disallow="tram rail_urban rail rail_electric ship" oneway="0"/>
    <type id="highway.track" priority="1" numLanes="1" speed="5.56" disallow="tram rail_urban rail rail_electric ship" oneway="0"/>
    <type id="highway.trunk" priority="11" numLanes="2" speed="27.78" disallow="tram rail_urban rail rail_electric bicycle pedestrian ship" oneway="0"/>
    <type id="highway.trunk_link" priority="10" numLanes="1" speed="22.22" disallow="tram rail_urban rail rail_electric bicycle pedestrian ship" oneway="0"/>
    <type id="highway.unclassified" priority="5" numLanes="1" speed="13.89" disallow="tram rail_urban rail rail_electric ship" oneway="0"/>
    <type id="highway.unsurfaced" priority="1" numLanes="1" speed="8.33" disallow="tram rail_urban rail rail_electric ship" oneway="0"/>
    <type id="railway.light_rail" priority="15" numLanes="1" speed="27.78" allow="rail_urban" oneway="1"/>
    <type id="railway.preserved" priority="15" numLanes="1" speed="27.78" allow="rail" oneway="1"/>
    <type id="railway.rail" priority="15" numLanes="1" speed="83.33" allow="rail rail_electric" oneway="1"/>
    <type id="railway.subway" priority="15" numLanes="1" speed="27.78" allow="rail_urban" oneway="1"/>
    <type id="railway.tram" priority="15" numLanes="1" speed="13.89" allow="tram" oneway="1"/>

    <edge id=":1289222404_0" function="internal">
        <lane id=":1289222404_0_0" index="0" disallow="tram rail_urban rail rail_electric ship" speed="13.89" length="5.00" shape="2215.92,4312.40 2220.32,4310.02"/>
    </edge>
    <edge id=":1289222416_0" function="internal">
        <lane id=":1289222416_0_0" index="0" disallow="tram rail_urban rail rail_electric ship" speed="13.89" length="5.00" shape="2103.75,4373.12 2108.14,4370.74"/>
    </edge>
    <edge id=":1289222420_0" function="internal">
        <lane id=":1289222420_0_0" index="0" disallow="tram rail_urban rail rail_electric ship" speed="11.18" length="4.99" shape="2300.27,4457.31 2295.88,4459.68"/>
        <lane id=":1289222420_0_1" index="1" disallow="tram rail_urban rail rail_electric ship" speed="11.18" length="4.99" shape="2298.71,4454.40 2294.31,4456.78"/>
    </edge>
    <edge id=":1289222420_2" function="internal">
        <lane id=":1289222420_2_0" index="0" disallow="tram rail_urban rail rail_electric ship" speed="11.18" length="4.82" shape="2298.71,4454.40 2297.23,4454.27 2296.47,4453.74 2296.44,4452.81 2297.14,4451.50"/>
    </edge>
    <edge id=":1289222420_3" function="internal">
        <lane id=":1289222420_3_0" index="0" disallow="tram rail_urban rail rail_electric ship" speed="11.18" length="5.00" shape="2291.18,4450.97 2295.58,4448.60"/>
        <lane id=":1289222420_3_1" index="1" disallow="tram rail_urban rail rail_electric ship" speed="11.18" length="5.00" shape="2292.74,4453.87 2297.14,4451.50"/>
    </edge>
    <edge id=":1289222420_5" function="internal">
        <lane id=":1289222420_5_0" index="0" disallow="tram rail_urban rail rail_electric ship" speed="11.18" length="4.82" shape="2292.74,4453.87 2294.22,4454.01 2294.98,4454.54 2295.01,4455.46 2294.31,4456.78"/>
    </edge>
    <edge id=":1289222431_0" function="internal">
        <lane id=":1289222431_0_0" index="0" disallow="tram rail_urban rail rail_electric ship" speed="11.18" length="5.00" shape="2187.08,4518.33 2182.68,4520.70"/>
        <lane id=":1289222431_0_1" index="1" disallow="tram rail_urban rail rail_electric ship" speed="11.18" length="5.00" shape="2185.51,4515.43 2181.11,4517.80"/>
    </edge>
    <edge id=":1289222431_2" function="internal">
        <lane id=":1289222431_2_0" index="0" disallow="tram rail_urban rail rail_electric ship" speed="11.18" length="4.82" shape="2185.51,4515.43 2184.03,4515.29 2183.28,4514.76 2183.25,4513.83 2183.95,4512.52"/>
    </edge>
    <edge id=":1289222431_3" function="internal">
        <lane id=":1289222431_3_0" index="0" disallow="tram rail_urban rail rail_electric ship" speed="11.18" length="5.00" shape="2177.98,4511.99 2182.38,4509.62"/>
        <lane id=":1289222431_3_1" index="1" disallow="tram rail_urban rail rail_electric ship" speed="11.18" length="5.00" shape="2179.55,4514.89 2183.95,4512.52"/>
    </edge>
    <edge id=":1289222431_5" function="internal">
        <lane id=":1289222431_5_0" index="0" disallow="tram rail_urban rail rail_electric ship" speed="11.18" length="4.82" shape="2179.55,4514.89 2181.03,4515.03 2181.78,4515.56 2181.81,4516.48 2181.11,4517.80"/>
    </edge>
    <edge id=":1695371014_0" function="internal">
        <lane id=":1695371014_0_0" index="0" disallow="tram rail_urban rail rail_electric ship" speed="9.73" length="3.59" shape="1399.72,4853.01 1398.99,4851.84 1398.33,4851.11 1397.73,4850.80 1397.19,4850.92"/>
    </edge>
    <edge id=":1695371014_1" function="internal">
        <lane id=":1695371014_1_0" index="0" allow="bicycle" speed="5.56" length="6.44" width="1.00" shape="1399.72,4853.01 1396.66,4847.34"/>
    </edge>
    <edge id=":1695371014_2" function="internal">
        <lane id=":1695371014_2_0" index="0" disallow="tram rail_urban rail rail_electric ship" speed="13.89" length="3.65" shape="1399.99,4848.59 1399.20,4849.33 1398.66,4849.84 1398.08,4850.31 1397.19,4850.92"/>
    </edge>
    <edge id=":1695371014_3" function="internal">
        <lane id=":1695371014_3_0" index="0" allow="bicycle" speed="9.73" length="4.30" width="1.00" shape="1399.99,4848.59 1399.11,4849.13 1398.26,4849.11 1397.45,4848.51 1396.66,4847.34"/>
    </edge>
    <edge id=":1745856010_0" function="internal">
        <lane id=":1745856010_0_0" index="0" disallow="tram rail_urban rail rail_electric ship" speed="11.18" length="5.00" shape="2599.12,5199.58 2603.52,5197.20"/>
    </edge>
    <edge id=":1745856081_0" function="internal">
        <lane id=":1745856081_0_0" index="0" disallow="tram rail_urban rail rail_electric ship" speed="27.78" length="4.94" shape="2642.24,5269.01 2637.92,5271.37"/>
        <lane id=":1745856081_0_1" index="1" disallow="tram rail_urban rail rail_electric ship" speed="27.78" length="4.94" shape="2640.68,5266.10 2636.31,5268.49"/>
    </edge>
    <edge id=":1745991210_0" function="internal">
        <lane id=":1745991210_0_0" index="0" disallow="tram rail_urban rail rail_electric ship" speed="13.89" length="5.01" shape="2223.28,5041.54 2227.69,5039.16"/>
    </edge>
    <edge id=":1745991212_0" function="internal">
        <lane id=":1745991212_0_0" index="0" disallow="tram rail_urban rail rail_electric ship" speed="27.78" length="5.02" shape="2265.39,5109.77 2260.97,5112.15"/>
    </edge>
    <edge id=":1745991214_0" function="internal">
        <lane id=":1745991214_0_0" index="0" disallow="tram rail_urban rail rail_electric ship" speed="27.78" length="5.00" shape="2297.77,5181.66 2302.18,5179.30"/>
        <lane id=":1745991214_0_1" index="1" disallow="tram rail_urban rail rail_electric ship" speed="27.78" length="5.00" shape="2299.33,5184.57 2303.73,5182.21"/>
    </edge>
    <edge id=":1752946324_0" function="internal">
        <lane id=":1752946324_0_0" index="0" disallow="tram rail_urban rail rail_electric ship" speed="11.18" length="5.00" shape="2029.36,4603.51 2024.96,4605.89"/>
        <lane id=":1752946324_0_1" index="1" disallow="tram rail_urban rail rail_electric ship" speed="11.18" length="5.00" shape="2027.79,4600.61 2023.39,4602.98"/>
    </edge>
    <edge id=":1752946324_2" function="internal">
        <lane id=":1752946324_2_0" index="0" disallow="tram rail_urban rail rail_electric ship" speed="11.18" length="2.41" shape="2027.79,4600.61 2026.31,4600.47 2025.56,4599.94"/>
    </edge>
    <edge id=":1752946324_6" function="internal">
        <lane id=":1752946324_6_0" index="0" speed="11.18" length="2.41" shape="2025.56,4599.94 2025.53,4599.02 2026.22,4597.71"/>
    </edge>
    <edge id=":1752946324_3" function="internal">
        <lane id=":1752946324_3_0" index="0" disallow="tram rail_urban rail rail_electric ship" speed="11.18" length="4.99" shape="2020.26,4597.17 2024.65,4594.80"/>
        <lane id=":1752946324_3_1" index="1" disallow="tram rail_urban rail rail_electric ship" speed="11.18" length="4.99" shape="2021.83,4600.08 2026.22,4597.71"/>
    </edge>
    <edge id=":1752946324_5" function="internal">
        <lane id=":1752946324_5_0" index="0" disallow="tram rail_urban rail rail_electric ship" speed="11.18" length="2.41" shape="2021.83,4600.08 2023.31,4600.22 2024.06,4600.75"/>
    </edge>
    <edge id=":1752946324_7" function="internal">
        <lane id=":1752946324_7_0" index="0" speed="11.18" length="2.41" shape="2024.06,4600.75 2024.09,4601.67 2023.39,4602.98"/>
    </edge>
    <edge id=":1752946328_0" function="internal">
        <lane id=":1752946328_0_0" index="0" disallow="tram rail_urban rail rail_electric ship" speed="13.89" length="5.00" shape="2067.99,4674.21 2063.58,4676.58"/>
    </edge>
    <edge id=":1758380526_0" function="internal">
        <lane id=":1758380526_0_0" index="0" disallow="tram rail_urban rail rail_electric ship" speed="8.07" length="7.85" shape="2034.31,5147.24 2034.02,5145.85 2034.62,5144.42 2036.10,5142.96 2038.47,5141.46"/>
    </edge>
    <edge id=":1758380526_1" function="internal">
        <lane id=":1758380526_1_0" index="0" allow="delivery bicycle pedestrian" speed="2.24" length="4.82" shape="2034.31,5147.24 2034.45,5145.76 2034.99,5145.00 2035.91,5144.98 2037.22,5145.69"/>
    </edge>
    <edge id=":1758380526_2" function="internal">
        <lane id=":1758380526_2_0" index="0" disallow="tram rail_urban rail rail_electric ship" speed="13.89" length="9.50" shape="2030.11,5145.97 2038.47,5141.46"/>
    </edge>
    <edge id=":1758380526_3" function="internal">
        <lane id=":1758380526_3_0" index="0" allow="delivery bicycle pedestrian" speed="8.07" length="7.86" shape="2030.11,5145.97 2032.67,5144.81 2034.71,5144.38 2036.23,5144.67 2037.22,5145.69"/>
    </edge>
    <edge id=":1758380528_0" function="internal">
        <lane id=":1758380528_0_0" index="0" disallow="tram rail_urban rail rail_electric ship" speed="27.78" length="9.50" shape="2076.23,5211.69 2067.86,5216.19"/>
    </edge>
    <edge id=":1758380528_1" function="internal">
        <lane id=":1758380528_1_0" index="0" allow="delivery bicycle pedestrian" speed="15.01" length="7.85" shape="2076.23,5211.69 2073.67,5212.84 2071.63,5213.28 2070.11,5212.99 2069.12,5211.98"/>
    </edge>
    <edge id=":1758380528_2" function="internal">
        <lane id=":1758380528_2_0" index="0" disallow="tram rail_urban rail rail_electric ship" speed="15.01" length="7.85" shape="2072.03,5210.42 2072.32,5211.81 2071.72,5213.23 2070.23,5214.69 2067.86,5216.19"/>
    </edge>
    <edge id=":1758380528_3" function="internal">
        <lane id=":1758380528_3_0" index="0" allow="delivery bicycle pedestrian" speed="2.24" length="4.82" shape="2072.03,5210.42 2071.88,5211.90 2071.35,5212.66 2070.43,5212.68 2069.12,5211.98"/>
    </edge>
    <edge id=":1762438249_0" function="internal">
        <lane id=":1762438249_0_0" index="0" disallow="tram rail_urban rail rail_electric ship" speed="11.18" length="5.00" shape="2284.62,4918.24 2280.22,4920.62"/>
    </edge>
    <edge id=":1762438252_0" function="internal">
        <lane id=":1762438252_0_0" index="0" disallow="tram rail_urban rail rail_electric ship" speed="27.78" length="5.00" shape="2242.05,4850.82 2246.45,4848.44"/>
    </edge>
    <edge id=":1814471103_0" function="internal">
        <lane id=":1814471103_0_0" index="0" disallow="tram rail_urban rail rail_electric ship" speed="13.89" length="7.19" shape="2530.18,5596.22 2536.51,5592.81"/>
        <lane id=":1814471103_0_1" index="1" disallow="tram rail_urban rail rail_electric ship" speed="13.89" length="7.19" shape="2531.75,5599.12 2538.08,5595.71"/>
    </edge>
    <edge id=":1815133244_0" function="internal">
        <lane id=":1815133244_0_0" index="0" disallow="tram rail_urban rail rail_electric ship" speed="27.78" length="5.02" shape="1846.02,5702.36 1845.22,5701.24 1844.25,5700.65 1843.12,5700.59 1841.83,5701.06"/>
    </edge>
    <edge id=":1815133244_1" function="internal">
        <lane id=":1815133244_1_0" index="0" disallow="tram rail_urban rail rail_electric ship" speed="27.78" length="9.64" shape="1846.02,5702.36 1841.50,5693.90"/>
        <lane id=":1815133244_1_1" index="1" disallow="tram rail_urban rail rail_electric ship" speed="27.78" length="9.64" shape="1848.95,5700.85 1844.39,5692.31"/>
    </edge>
    <edge id=":1815133244_3" function="internal">
        <lane id=":1815133244_3_0" index="0" disallow="tram rail_urban rail rail_electric ship" speed="27.78" length="9.64" shape="1850.29,5696.31 1841.83,5701.06"/>
        <lane id=":1815133244_3_1" index="1" disallow="tram rail_urban rail rail_electric ship" speed="27.78" length="9.64" shape="1848.62,5693.47 1840.27,5698.15"/>
    </edge>
    <edge id=":1815133244_5" function="internal">
        <lane id=":1815133244_5_0" index="0" disallow="tram rail_urban rail rail_electric ship" speed="27.78" length="5.03" shape="1848.62,5693.47 1847.33,5694.00 1846.20,5693.98 1845.22,5693.42 1844.39,5692.31"/>
    </edge>
    <edge id=":1828749423_0" function="internal">
        <lane id=":1828749423_0_0" index="0" disallow="tram rail_urban rail rail_electric ship" speed="13.89" length="7.12" shape="2497.45,5525.83 2491.18,5529.19"/>
    </edge>
    <edge id=":1828749426_0" function="internal">
        <lane id=":1828749426_0_0" index="0" disallow="tram rail_urban rail rail_electric ship" speed="11.18" length="7.18" shape="2384.57,5315.38 2390.89,5311.96"/>
    </edge>
    <edge id=":1828749427_0" function="internal">
        <lane id=":1828749427_0_0" index="0" disallow="tram rail_urban rail rail_electric ship" speed="27.78" length="7.52" shape="2429.63,5383.11 2423.01,5386.72"/>
        <lane id=":1828749427_0_1" index="1" disallow="tram rail_urban rail rail_electric ship" speed="27.78" length="7.52" shape="2428.03,5380.23 2421.45,5383.82"/>
    </edge>
    <edge id=":1828749428_0" function="internal">
        <lane id=":1828749428_0_0" index="0" disallow="tram rail_urban rail rail_electric ship" speed="13.89" length="7.09" shape="2353.21,5243.91 2346.96,5247.24"/>
    </edge>
    <edge id=":2176936521_0" function="internal">
        <lane id=":2176936521_0_0" index="0" disallow="tram rail_urban rail rail_electric ship" speed="27.78" length="5.00" shape="2353.49,4701.04 2349.09,4703.42"/>
    </edge>
    <edge id=":2176936535_0" function="internal">
        <lane id=":2176936535_0_0" index="0" disallow="tram rail_urban rail rail_electric ship" speed="27.78" length="5.00" shape="2385.39,4773.35 2389.78,4770.97"/>
    </edge>
    <edge id=":2348991701_0" function="internal">
        <lane id=":2348991701_0_0" index="0" disallow="tram rail_urban rail rail_electric ship" speed="27.78" length="3.55" shape="2028.58,5689.32 2029.29,5688.64 2029.51,5687.88 2029.73,5687.12 2030.44,5686.45"/>
        <lane id=":2348991701_0_1" index="1" disallow="tram rail_urban rail rail_electric ship" speed="27.78" length="3.55" shape="2030.13,5692.23 2030.85,5691.55 2031.07,5690.79 2031.29,5690.03 2032.00,5689.35"/>
    </edge>
    <edge id=":2351527463_0" function="internal">
        <lane id=":2351527463_0_0" index="0" allow="bicycle" speed="5.56" length="6.21" width="1.00" shape="1322.15,4709.20 1319.20,4703.73"/>
    </edge>
    <edge id=":2351527463_1" function="internal">
        <lane id=":2351527463_1_0" index="0" allow="bicycle" speed="9.73" length="4.16" width="1.00" shape="1322.42,4705.52 1321.56,4705.77 1320.73,4705.55 1319.95,4704.87 1319.20,4703.73"/>
    </edge>
    <edge id=":2351527464_0" function="internal">
        <lane id=":2351527464_0_0" index="0" allow="bicycle" speed="5.56" length="9.51" width="1.00" shape="1211.65,4502.07 1207.14,4493.70"/>
    </edge>
    <edge id=":2351527464_1" function="internal">
        <lane id=":2351527464_1_0" index="0" disallow="tram rail_urban rail rail_electric ship" speed="16.67" length="4.16" shape="1211.65,4502.07 1211.12,4500.81 1210.99,4499.78 1211.27,4498.97 1211.94,4498.39"/>
    </edge>
    <edge id=":2351527464_2" function="internal">
        <lane id=":2351527464_2_0" index="0" allow="bicycle" speed="16.67" length="4.22" width="1.00" shape="1206.81,4497.44 1207.51,4496.83 1207.79,4496.00 1207.67,4494.96 1207.14,4493.70"/>
    </edge>
    <edge id=":2351527464_3" function="internal">
        <lane id=":2351527464_3_0" index="0" disallow="tram rail_urban rail rail_electric ship" speed="27.78" length="4.05" shape="1206.81,4497.44 1210.38,4495.48"/>
        <lane id=":2351527464_3_1" index="1" disallow="tram rail_urban rail rail_electric ship" speed="27.78" length="4.05" shape="1208.41,4500.32 1211.94,4498.39"/>
    </edge>
    <edge id=":2351527466_0" function="internal">
        <lane id=":2351527466_0_0" index="0" allow="bicycle" speed="5.56" length="6.23" width="1.00" shape="1285.69,4639.72 1282.86,4634.18"/>
    </edge>
    <edge id=":2351527466_1" function="internal">
        <lane id=":2351527466_1_0" index="0" disallow="tram rail_urban rail rail_electric ship" speed="9.73" length="4.21" shape="1285.69,4639.72 1285.21,4638.44 1285.12,4637.39 1285.42,4636.56 1286.11,4635.97"/>
    </edge>
    <edge id=":2351527466_2" function="internal">
        <lane id=":2351527466_2_0" index="0" allow="bicycle" speed="9.73" length="4.03" width="1.00" shape="1282.65,4637.73 1283.30,4637.21 1283.55,4636.44 1283.41,4635.43 1282.86,4634.18"/>
    </edge>
    <edge id=":2351527466_3" function="internal">
        <lane id=":2351527466_3_0" index="0" disallow="tram rail_urban rail rail_electric ship" speed="13.89" length="3.88" shape="1282.65,4637.73 1286.11,4635.97"/>
    </edge>
    <edge id=":2351527467_0" function="internal">
        <lane id=":2351527467_0_0" index="0" allow="bicycle" speed="5.56" length="9.50" width="1.00" shape="1248.72,4571.09 1244.21,4562.72"/>
    </edge>
    <edge id=":2351527467_1" function="internal">
        <lane id=":2351527467_1_0" index="0" allow="bicycle" speed="16.67" length="7.16" width="1.00" shape="1249.01,4567.41 1248.05,4567.48 1246.93,4566.72 1245.65,4565.13 1244.21,4562.72"/>
    </edge>
    <edge id=":2351532356_0" function="internal">
        <lane id=":2351532356_0_0" index="0" disallow="tram rail_urban rail rail_electric ship" speed="16.67" length="4.24" shape="1552.31,5136.51 1551.54,5135.38 1550.73,5134.70 1549.87,5134.48 1548.97,5134.71"/>
    </edge>
    <edge id=":2351532356_1" function="internal">
        <lane id=":2351532356_1_0" index="0" allow="bicycle" speed="5.56" length="6.22" width="1.00" shape="1552.31,5136.51 1549.32,5131.05"/>
    </edge>
    <edge id=":2351532356_2" function="internal">
        <lane id=":2351532356_2_0" index="0" disallow="tram rail_urban rail rail_electric ship" speed="27.78" length="4.07" shape="1552.58,5132.83 1548.97,5134.71"/>
    </edge>
    <edge id=":2351532356_3" function="internal">
        <lane id=":2351532356_3_0" index="0" allow="bicycle" speed="16.67" length="4.18" width="1.00" shape="1552.58,5132.83 1551.71,5133.08 1550.88,5132.87 1550.08,5132.19 1549.32,5131.05"/>
    </edge>
    <edge id=":2351532361_0" function="internal">
        <lane id=":2351532361_0_0" index="0" allow="bicycle" speed="5.56" length="6.20" width="1.00" shape="1665.08,5346.06 1662.13,5340.61"/>
    </edge>
    <edge id=":2351532361_1" function="internal">
        <lane id=":2351532361_1_0" index="0" disallow="tram rail_urban rail rail_electric ship" speed="9.73" length="4.15" shape="1665.08,5346.06 1664.54,5344.81 1664.41,5343.78 1664.68,5342.97 1665.36,5342.39"/>
    </edge>
    <edge id=":2351532361_2" function="internal">
        <lane id=":2351532361_2_0" index="0" allow="bicycle" speed="9.73" length="4.15" width="1.00" shape="1661.84,5344.29 1662.51,5343.70 1662.79,5342.89 1662.66,5341.86 1662.13,5340.61"/>
    </edge>
    <edge id=":2351532361_3" function="internal">
        <lane id=":2351532361_3_0" index="0" disallow="tram rail_urban rail rail_electric ship" speed="13.89" length="4.01" shape="1661.84,5344.29 1665.36,5342.39"/>
    </edge>
    <edge id=":2351532363_0" function="internal">
        <lane id=":2351532363_0_0" index="0" disallow="tram rail_urban rail rail_electric ship" speed="16.67" length="4.17" shape="1855.79,5696.69 1855.03,5695.56 1854.23,5694.90 1853.40,5694.71 1852.53,5694.99"/>
    </edge>
    <edge id=":2351532363_1" function="internal">
        <lane id=":2351532363_1_0" index="0" allow="bicycle" speed="5.56" length="9.52" width="1.00" shape="1855.79,5696.69 1851.24,5688.33"/>
    </edge>
    <edge id=":2351532363_2" function="internal">
        <lane id=":2351532363_2_0" index="0" disallow="tram rail_urban rail rail_electric ship" speed="27.78" length="4.11" shape="1856.06,5692.99 1852.53,5694.99"/>
        <lane id=":2351532363_2_1" index="1" disallow="tram rail_urban rail rail_electric ship" speed="27.78" length="4.11" shape="1854.48,5690.09 1850.85,5692.15"/>
    </edge>
    <edge id=":2351532363_4" function="internal">
        <lane id=":2351532363_4_0" index="0" allow="bicycle" speed="16.67" length="4.15" width="1.00" shape="1854.48,5690.09 1853.62,5690.34 1852.79,5690.13 1852.00,5689.46 1851.24,5688.33"/>
    </edge>
    <edge id=":2351532367_0" function="internal">
        <lane id=":2351532367_0_0" index="0" disallow="tram rail_urban rail rail_electric ship" speed="9.73" length="4.18" shape="1778.34,5556.08 1777.57,5554.96 1776.77,5554.29 1775.93,5554.07 1775.06,5554.32"/>
    </edge>
    <edge id=":2351532367_1" function="internal">
        <lane id=":2351532367_1_0" index="0" allow="bicycle" speed="5.56" length="6.21" width="1.00" shape="1778.34,5556.08 1775.35,5550.64"/>
    </edge>
    <edge id=":2351532367_2" function="internal">
        <lane id=":2351532367_2_0" index="0" disallow="tram rail_urban rail rail_electric ship" speed="13.89" length="4.03" shape="1778.61,5552.41 1775.06,5554.32"/>
    </edge>
    <edge id=":2351532367_3" function="internal">
        <lane id=":2351532367_3_0" index="0" allow="bicycle" speed="9.73" length="4.17" width="1.00" shape="1778.61,5552.41 1777.74,5552.66 1776.90,5552.45 1776.11,5551.78 1775.35,5550.64"/>
    </edge>
    <edge id=":2351532369_0" function="internal">
        <lane id=":2351532369_0_0" index="0" allow="bicycle" speed="5.56" length="9.51" width="1.00" shape="1741.38,5488.14 1736.90,5479.76"/>
    </edge>
    <edge id=":2351532369_1" function="internal">
        <lane id=":2351532369_1_0" index="0" disallow="tram rail_urban rail rail_electric ship" speed="16.67" length="1.52" shape="1741.38,5488.14 1740.84,5486.89 1740.82,5486.74"/>
    </edge>
    <edge id=":2351532369_5" function="internal">
        <lane id=":2351532369_5_0" index="0" speed="16.67" length="2.65" shape="1740.82,5486.74 1740.71,5485.86 1740.99,5485.05 1741.68,5484.46"/>
    </edge>
    <edge id=":2351532369_2" function="internal">
        <lane id=":2351532369_2_0" index="0" allow="bicycle" speed="16.67" length="4.17" width="1.00" shape="1736.58,5483.46 1737.26,5482.87 1737.54,5482.06 1737.42,5481.02 1736.90,5479.76"/>
    </edge>
    <edge id=":2351532369_3" function="internal">
        <lane id=":2351532369_3_0" index="0" disallow="tram rail_urban rail rail_electric ship" speed="27.78" length="4.02" shape="1736.58,5483.46 1740.12,5481.55"/>
        <lane id=":2351532369_3_1" index="1" disallow="tram rail_urban rail rail_electric ship" speed="27.78" length="4.02" shape="1738.14,5486.37 1741.68,5484.46"/>
    </edge>
    <edge id=":2351532371_0" function="internal">
        <lane id=":2351532371_0_0" index="0" disallow="tram rail_urban rail rail_electric ship" speed="8.37" length="4.17" shape="1627.38,5275.77 1626.63,5274.63 1625.83,5273.96 1625.00,5273.77 1624.13,5274.05"/>
    </edge>
    <edge id=":2351532371_1" function="internal">
        <lane id=":2351532371_1_0" index="0" allow="bicycle" speed="5.56" length="6.22" width="1.00" shape="1627.38,5275.77 1624.46,5270.27"/>
    </edge>
    <edge id=":2351532371_2" function="internal">
        <lane id=":2351532371_2_0" index="0" disallow="tram rail_urban rail rail_electric ship" speed="11.18" length="4.06" shape="1627.68,5272.07 1624.13,5274.05"/>
    </edge>
    <edge id=":2351532371_3" function="internal">
        <lane id=":2351532371_3_0" index="0" allow="bicycle" speed="8.37" length="4.15" width="1.00" shape="1627.68,5272.07 1626.82,5272.31 1625.99,5272.10 1625.21,5271.42 1624.46,5270.27"/>
    </edge>
    <edge id=":2351532373_0" function="internal">
        <lane id=":2351532373_0_0" index="0" disallow="tram rail_urban rail rail_electric ship" speed="16.67" length="4.18" shape="1703.83,5415.90 1703.13,5414.72 1702.37,5414.02 1701.54,5413.80 1700.66,5414.06"/>
    </edge>
    <edge id=":2351532373_1" function="internal">
        <lane id=":2351532373_1_0" index="0" allow="bicycle" speed="5.56" length="6.23" width="1.00" shape="1703.83,5415.90 1700.97,5410.36"/>
    </edge>
    <edge id=":2351532373_2" function="internal">
        <lane id=":2351532373_2_0" index="0" disallow="tram rail_urban rail rail_electric ship" speed="27.78" length="4.06" shape="1704.23,5412.13 1700.66,5414.06"/>
    </edge>
    <edge id=":2351532373_3" function="internal">
        <lane id=":2351532373_3_0" index="0" allow="bicycle" speed="16.67" length="4.16" width="1.00" shape="1704.23,5412.13 1703.37,5412.37 1702.55,5412.16 1701.74,5411.49 1700.97,5410.36"/>
    </edge>
    <edge id=":2351532375_0" function="internal">
        <lane id=":2351532375_0_0" index="0" allow="bicycle" speed="5.56" length="6.23" width="1.00" shape="1590.99,5206.80 1588.04,5201.32"/>
    </edge>
    <edge id=":2351532375_1" function="internal">
        <lane id=":2351532375_1_0" index="0" disallow="tram rail_urban rail rail_electric ship" speed="16.67" length="4.15" shape="1590.99,5206.80 1590.47,5205.54 1590.35,5204.51 1590.62,5203.70 1591.30,5203.11"/>
    </edge>