<?xml version="1.0"?>
<!-- generated on 2018-06-30 02:30:25.464892 by $Id$ -->
<trips>
    <vType id="passenger" vClass="passenger"/>
    <trip id="veh1" depart="0.68" departLane="best" from="265356028#5" to="226041027#5" type="passenger"/>
    <trip id="veh2" depart="1.36" departLane="best" from="511699178" to="46538375#6" type="passenger"/>
    <trip id="veh3" depart="2.05" departLane="best" from="5671709#0" to="167922073#0" type="passenger"/>
    <trip id="veh5" depart="3.41" departLane="best" from="226041027#3" to="46443656#8" type="passenger"/>
    <trip id="veh6" depart="4.09" departLane="best" from="-542259076#0" to="226041022#2" type="passenger"/>
    <trip id="veh7" depart="4.77" departLane="best" from="483360105" to="464543615#2" type="passenger"/>
    <trip id="veh8" depart="5.45" departLane="best" from="226041027#4" to="46521993" type="passenger"/>
    <trip id="veh9" depart="6.14" departLane="best" from="542258337#4" to="-167922072#2" type="passenger"/>
    <trip id="veh10" depart="6.82" departLane="best" from="542258337#2" to="499172074#1-AddedOnRampEdge" type="passenger"/>
    <trip id="veh11" depart="7.50" departLane="best" from="384649120#0" to="194926854#4" type="passenger"/>
    <trip id="veh12" depart="8.18" departLane="best" from="569345537#0" to="384649120#4" type="passenger"/>
    <trip id="veh13" depart="8.86" departLane="best" from="194920158#0" to="167922074#1" type="passenger"/>
    <trip id="veh14" depart="9.54" departLane="best" from="5670197#0" to="46522008#3" type="passenger"/>
    <trip id="veh15" depart="10.23" departLane="best" from="542258337#3" to="500717404#0" type="passenger"/>
    <trip id="veh16" depart="10.91" departLane="best" from="46481747#1" to="569345540#0" type="passenger"/>
    <trip id="veh17" depart="11.59" departLane="best" from="420892272#0" to="46481747#0" type="passenger"/>
    <trip id="veh18" depart="12.27" departLane="best" from="5670114#0" to="46522008#8" type="passenger"/>
    <trip id="veh19" depart="12.95" departLane="best" from="5671115#0" to="46482602#9" type="passenger"/>
    <trip id="veh20" depart="13.63" departLane="best" from="499172074#5" to="-511699183#3" type="passenger"/>
    <trip id="veh22" depart="15.00" departLane="best" from="167922077" to="226041029#1" type="passenger"/>
    <trip id="veh23" depart="15.68" departLane="best" from="194920158#12" to="265356028#13" type="passenger"/>
    <trip id="veh24" depart="16.36" departLane="best" from="46538375#3" to="420905130#2" type="passenger"/>
    <trip id="veh25" depart="17.04" departLane="best" from="420890029" to="226041026" type="passenger"/>
    <trip id="veh26" depart="17.72" departLane="best" from="483360105" to="46522008#6" type="passenger"/>
    <trip id="veh27" depart="18.41" departLane="best" from="195743345" to="500717399" type="passenger"/>
    <trip id="veh28" depart="19.09" departLane="best" from="195743210#0" to="420907908#2" type="passenger"/>
    <trip id="veh29" depart="19.77" departLane="best" from="569345545" to="46538371#6" type="passenger"/>
    <trip id="veh30" depart="20.45" departLane="best" from="46482602#4" to="483360105" type="passenger"/>
    <trip id="veh32" depart="21.81" departLane="best" from="226041027#0" to="5673323#2" type="passenger"/>
    <trip id="veh33" depart="22.50" departLane="best" from="5671276#12" to="35027229#1" type="passenger"/>
    <trip id="veh34" depart="23.18" departLane="best" from="496986969#0" to="438384693#1" type="passenger"/>
    <trip id="veh35" depart="23.86" departLane="best" from="5672991" to="460585328#2" type="passenger"/>
    <trip id="veh36" depart="24.54" departLane="best" from="265356028#0" to="226041031#3" type="passenger"/>
    <trip id="veh37" depart="25.22" departLane="best" from="46482602#6" to="226041032#0" type="passenger"/>
    <trip id="veh38" depart="25.90" departLane="best" from="46522008#4" to="5671276#0" type="passenger"/>
    <trip id="veh39" depart="26.59" departLane="best" from="420907908#1" to="226041027#3" type="passenger"/>
    <trip id="veh40" depart="27.27" departLane="best" from="569345547#2" to="464515890" type="passenger"/>
    <trip id="veh41" depart="27.95" departLane="best" from="194920158#0" to="-525729008#1" type="passenger"/>
    <trip id="veh42" depart="28.63" departLane="best" from="194920158#5" to="46538371#0" type="passenger"/>
    <trip id="veh43" depart="29.31" departLane="best" from="542257982#0" to="438385431#4" type="passenger"/>
    <trip id="veh44" depart="29.99" departLane="best" from="569345547#2" to="464516471#7" type="passenger"/>
    <trip id="veh45" depart="30.68" departLane="best" from="569345539" to="5670124#1" type="passenger"/>
    <trip id="veh46" depart="31.36" departLane="best" from="-438384692#1" to="499172074#3" type="passenger"/>
    <trip id="veh47" depart="32.04" departLane="best" from="499172074#0" to="464543615#0" type="passenger"/>
    <trip id="veh50" depart="34.08" departLane="best" from="5671276#12" to="226041032#0" type="passenger"/>
    <trip id="veh51" depart="34.77" departLane="best" from="46443656#9" to="196116976#12" type="passenger"/>
    <trip id="veh52" depart="35.45" departLane="best" from="5672991" to="5670225" type="passenger"/>
    <trip id="veh53" depart="36.13" departLane="best" from="324118557#0" to="46538371#6" type="passenger"/>
    <trip id="veh54" depart="36.81" departLane="best" from="46538371#3" to="194926854#3" type="passenger"/>
    <trip id="veh55" depart="37.49" departLane="best" from="525729010#0" to="464543615#1" type="passenger"/>
    <trip id="veh56" depart="38.17" departLane="best" from="542256188#3" to="464516471#8" type="passenger"/>
    <trip id="veh57" depart="38.86" departLane="best" from="-167922072#0" to="382740985#3" type="passenger"/>
    <trip id="veh58" depart="39.54" departLane="best" from="-511699183#2" to="5672149#1" type="passenger"/>
    <trip id="veh59" depart="40.22" departLane="best" from="5671276#3" to="542258337#4" type="passenger"/>
    <trip id="veh60" depart="40.90" departLane="best" from="35027229#0" to="-5672991" type="passenger"/>
    <trip id="veh61" depart="41.58" departLane="best" from="5671276#3" to="5673515#0" type="passenger"/>
    <trip id="veh62" depart="42.26" departLane="best" from="167922074#0" to="511699184#1" type="passenger"/>
    <trip id="veh64" depart="43.63" departLane="best" from="460585328#7" to="464543615#2" type="passenger"/>
    <trip id="veh65" depart="44.31" departLane="best" from="265356028#0" to="5670225" type="passenger"/>
    <trip id="veh66" depart="44.99" departLane="best" from="438397345" to="226041027#0" type="passenger"/>
    <trip id="veh67" depart="45.67" departLane="best" from="46482602#0" to="500717404#0" type="passenger"/>
    <trip id="veh68" depart="46.35" departLane="best" from="226041022#3" to="324118558" type="passenger"/>
    <trip id="veh69" depart="47.04" departLane="best" from="569345547#1" to="46538375#10" type="passenger"/>
    <trip id="veh70" depart="47.72" departLane="best" from="194926846#1" to="226041028#0" type="passenger"/>
    <trip id="veh71" depart="48.40" departLane="best" from="384649120#0" to="46521993" type="passenger"/>
    <trip id="veh72" depart="49.08" departLane="best" from="226041029#1" to="226041027#4" type="passenger"/>
    <trip id="veh73" depart="49.76" departLane="best" from="167922074#1" to="46538371#3" type="passenger"/>
    <trip id="veh74" depart="50.45" departLane="best" from="226041029#0" to="5671276#3" type="passenger"/>
    <trip id="veh75" depart="51.13" departLane="best" from="5671115#0" to="127693103#0" type="passenger"/>
    <trip id="veh76" depart="51.81" departLane="best" from="226041031#0" to="46538375#17" type="passenger"/>
    <trip id="veh77" depart="52.49" departLane="best" from="5673323#2" to="46482602#6" type="passenger"/>
    <trip id="veh78" depart="53.17" departLane="best" from="460585328#5" to="542255948#0" type="passenger"/>
    <trip id="veh79" depart="53.85" departLane="best" from="438397345" to="460585328#6" type="passenger"/>
    <trip id="veh80" depart="54.54" departLane="best" from="511699178" to="46538375#5" type="passenger"/>
    <trip id="veh81" depart="55.22" departLane="best" from="569345543" to="167922074#1" type="passenger"/>
    <trip id="veh82" depart="55.90" departLane="best" from="420908138#0" to="397795463" type="passenger"/>
    <trip id="veh83" depart="56.58" departLane="best" from="5671115#0" to="226041031#4" type="passenger"/>
    <trip id="veh84" depart="57.26" departLane="best" from="196116976#7" to="452322756#4" type="passenger"/>
    <trip id="veh86" depart="58.63" departLane="best" from="226041032#0" to="5672149#1" type="passenger"/>
    <trip id="veh87" depart="59.31" departLane="best" from="458177130" to="5670124#1" type="passenger"/>
    <trip id="veh88" depart="59.99" departLane="best" from="46482602#10" to="-542259076#1" type="passenger"/>
    <trip id="veh89" depart="60.67" departLane="best" from="588157337#0" to="542259076#1" type="passenger"/>
    <trip id="veh90" depart="61.35" departLane="best" from="569345538#2" to="5672149#1" type="passenger"/>
    <trip id="veh91" depart="62.03" departLane="best" from="46443656#2" to="226041027#1" type="passenger"/>
    <trip id="veh92" depart="62.72" departLane="best" from="420907908#2" to="-5672991" type="passenger"/>
    <trip id="veh93" depart="63.40" departLane="best" from="420892272#0" to="569345544" type="passenger"/>
    <trip id="veh94" depart="64.08" departLane="best" from="265356028#0" to="525729010#3" type="passenger"/>
    <trip id="veh95" depart="64.76" departLane="best" from="460585328#0" to="438385431#4" type="passenger"/>
    <trip id="veh96" depart="65.44" departLane="best" from="569345537#0" to="569345547#1" type="passenger"/>
    <trip id="veh97" depart="66.12" departLane="best" from="46482602#3" to="499172074#2" type="passenger"/>
    <trip id="veh98" depart="66.81" departLane="best" from="194926854#3" to="265356028#7" type="passenger"/>
    <trip id="veh99" depart="67.49" departLane="best" from="569345538#1" to="46482609" type="passenger"/>
    <trip id="veh100" depart="68.17" departLane="best" from="46482602#0" to="511699182" type="passenger"/>
    <trip id="veh101" depart="68.85" departLane="best" from="167922072#1" to="46521993" type="passenger"/>
    <trip id="veh102" depart="69.53" departLane="best" from="464515890" to="5670106#2" type="passenger"/>
    <trip id="veh103" depart="70.21" departLane="best" from="194926854#4" to="569345537#5" type="passenger"/>
    <trip id="veh104" depart="70.90" departLane="best" from="167922077" to="196116976#5" type="passenger"/>
    <trip id="veh105" depart="71.58" departLane="best" from="46538335#0" to="46538375#6" type="passenger"/>
    <trip id="veh106" depart="72.26" departLane="best" from="226041030#1" to="194920158#7" type="passenger"/>
    <trip id="veh107" depart="72.94" departLane="best" from="5671709#0" to="226041031#3" type="passenger"/>
    <trip id="veh108" depart="73.62" departLane="best" from="46538335#0" to="46522008#8" type="passenger"/>
    <trip id="veh109" depart="74.30" departLane="best" from="438385431#2" to="46521993" type="passenger"/>
    <trip id="veh111" depart="75.67" departLane="best" from="226041025#1" to="499172074#14" type="passenger"/>
    <trip id="veh112" depart="76.35" departLane="best" from="226041031#0" to="438384693#1" type="passenger"/>
    <trip id="veh113" depart="77.03" departLane="best" from="382740985#0" to="511699183#1" type="passenger"/>
    <trip id="veh114" depart="77.71" departLane="best" from="167922074#1" to="460585328#2" type="passenger"/>
    <trip id="veh115" depart="78.39" departLane="best" from="588157337#0" to="569345547#2" type="passenger"/>
    <trip id="veh116" depart="79.08" departLane="best" from="167922076" to="226041027#0" type="passenger"/>
    <trip id="veh117" depart="79.76" departLane="best" from="265356028#0" to="5672464" type="passenger"/>
    <trip id="veh118" depart="80.44" departLane="best" from="5671276#6" to="5670867#1" type="passenger"/>
    <trip id="veh119" depart="81.12" departLane="best" from="420890029" to="194926855" type="passenger"/>
    <trip id="veh120" depart="81.80" departLane="best" from="5670124#0" to="499172074#13" type="passenger"/>
    <trip id="veh121" depart="82.48" departLane="best" from="46538371#4" to="569345545" type="passenger"/>
    <trip id="veh122" depart="83.17" departLane="best" from="496986969#0" to="-167922076" type="passenger"/>
    <trip id="veh123" depart="83.85" departLane="best" from="5670106#1" to="265356028#8" type="passenger"/>
    <trip id="veh124" depart="84.53" departLane="best" from="496986970#0" to="5673323#0" type="passenger"/>
    <trip id="veh125" depart="85.21" departLane="best" from="194926851#4" to="194920158#5" type="passenger"/>
    <trip id="veh126" depart="85.89" departLane="best" from="194920158#4" to="46481747#0" type="passenger"/>
    <trip id="veh128" depart="87.26" departLane="best" from="46443656#3" to="5671276#3" type="passenger"/>
    <trip id="veh129" depart="87.94" departLane="best" from="5670197#0" to="167922073#2" type="passenger"/>
    <trip id="veh130" depart="88.62" departLane="best" from="438397345" to="265356028#12" type="passenger"/>
    <trip id="veh131" depart="89.30" departLane="best" from="-167922072#1" to="525729009" type="passenger"/>
    <trip id="veh132" depart="89.98" departLane="best" from="46538375#3" to="226041032#0" type="passenger"/>
    <trip id="veh133" depart="90.66" departLane="best" from="511699182" to="46481747#0" type="passenger"/>
    <trip id="veh134" depart="91.35" departLane="best" from="448686048" to="-167922077" type="passenger"/>
    <trip id="veh135" depart="92.03" departLane="best" from="167922077" to="5670867#1" type="passenger"/>
    <trip id="veh137" depart="93.39" departLane="best" from="5670124#0" to="46521993" type="passenger"/>
    <trip id="veh138" depart="94.07" departLane="best" from="194926854#0" to="194926846#0" type="passenger"/>
    <trip id="veh139" depart="94.75" departLane="best" from="35027229#0" to="5671276#11" type="passenger"/>
    <trip id="veh140" depart="95.44" departLane="best" from="542258060" to="5670124#1" type="passenger"/>
    <trip id="veh141" depart="96.12" departLane="best" from="226041032#0" to="194920158#10" type="passenger"/>
    <trip id="veh143" depart="97.48" departLane="best" from="420908138#3" to="46522008#8" type="passenger"/>
    <trip id="veh144" depart="98.16" departLane="best" from="194926854#3" to="5672149#1" type="passenger"/>
    <trip id="veh145" depart="98.85" departLane="best" from="5671115#2" to="569345541#0" type="passenger"/>
    <trip id="veh146" depart="99.53" departLane="best" from="542259076#0" to="5670867#1" type="passenger"/>
    <trip id="veh147" depart="100.21" departLane="best" from="-525729008#1" to="505317783" type="passenger"/>
    <trip id="veh148" depart="100.89" departLane="best" from="384178816#1" to="5672149#1" type="passenger"/>
    <trip id="veh149" depart="101.57" departLane="best" from="542258337#1" to="5670197#2" type="passenger"/>
    <trip id="veh150" depart="102.25" departLane="best" from="542259076#0" to="226041032#4" type="passenger"/>
    <trip id="veh151" depart="102.94" departLane="best" from="542257009#0" to="194920158#13" type="passenger"/>
    <trip id="veh152" depart="103.62" departLane="best" from="5671276#0" to="5670124#0" type="passenger"/>
    <trip id="veh153" depart="104.30" departLane="best" from="226041027#5" to="542257982#1" type="passenger"/>
    <trip id="veh154" depart="104.98" departLane="best" from="460585328#0" to="324118554#0" type="passenger"/>
    <trip id="veh155" depart="105.66" departLane="best" from="542257982#1" to="226041028#1" type="passenger"/>
    <trip id="veh156" depart="106.34" departLane="best" from="-525729008#1" to="196116976#8" type="passenger"/>
    <trip id="veh157" depart="107.03" departLane="best" from="384178816#0" to="5670197#2" type="passenger"/>
    <trip id="veh158" depart="107.71" departLane="best" from="569345538#1" to="265356028#13" type="passenger"/>
    <trip id="veh159" depart="108.39" departLane="best" from="46538375#6" to="438384693#1" type="passenger"/>
    <trip id="veh160" depart="109.07" departLane="best" from="569345541#1" to="464543614" type="passenger"/>
    <trip id="veh161" depart="109.75" departLane="best" from="5673515#0" to="194920158#5" type="passenger"/>
    <trip id="veh162" depart="110.43" departLane="best" from="511699178" to="35027229#0" type="passenger"/>
    <trip id="veh163" depart="111.12" departLane="best" from="46538371#0" to="464515891" type="passenger"/>
    <trip id="veh164" depart="111.80" departLane="best" from="420905130#0" to="46482602#9" type="passenger"/>
    <trip id="veh165" depart="112.48" departLane="best" from="226041033" to="499172074#14" type="passenger"/>
    <trip id="veh166" depart="113.16" departLane="best" from="-167922072#0" to="5672149#1" type="passenger"/>
    <trip id="veh167" depart="113.84" departLane="best" from="46482602#0" to="499172074#3" type="passenger"/>
    <trip id="veh168" depart="114.52" departLane="best" from="511699183#0" to="46538375#3" type="passenger"/>
    <trip id="veh169" depart="115.21" departLane="best" from="420890024" to="125480075" type="passenger"/>
    <trip id="veh170" depart="115.89" departLane="best" from="496986970#0" to="384649120#1" type="passenger"/>
    <trip id="veh171" depart="116.57" departLane="best" from="36806906#1" to="5670106#2" type="passenger"/>
    <trip id="veh173" depart="117.93" departLane="best" from="35027229#1" to="438385431#1" type="passenger"/>
    <trip id="veh174" depart="118.61" departLane="best" from="420908138#0" to="265356028#6" type="passenger"/>
    <trip id="veh175" depart="119.30" departLane="best" from="194926851#1" to="438385431#4" type="passenger"/>
    <trip id="veh176" depart="119.98" departLane="best" from="5673515#1" to="46538375#7" type="passenger"/>
    <trip id="veh178" depart="121.34" departLane="best" from="324118557#0" to="464543615#2" type="passenger"/>
    <trip id="veh179" depart="122.02" departLane="best" from="-167922072#0" to="265356028#13" type="passenger"/>
    <trip id="veh180" depart="122.70" departLane="best" from="452322756#0" to="46482609" type="passenger"/>
    <trip id="veh181" depart="123.39" departLane="best" from="496986969#0" to="460585328#5" type="passenger"/>
    <trip id="veh182" depart="124.07" departLane="best" from="458177130" to="226041027#1" type="passenger"/>
    <trip id="veh183" depart="124.75" departLane="best" from="167922077" to="464516471#1" type="passenger"/>
    <trip id="veh184" depart="125.43" departLane="best" from="46538375#15" to="384649120#3" type="passenger"/>
    <trip id="veh185" depart="126.11" departLane="best" from="496986970#0" to="226041028#0" type="passenger"/>
    <trip id="veh187" depart="127.48" departLane="best" from="226041031#3" to="46334593" type="passenger"/>
    <trip id="veh188" depart="128.16" departLane="best" from="5670197#1" to="127693103#1" type="passenger"/>
    <trip id="veh190" depart="129.52" departLane="best" from="226041022#0" to="499172074#1" type="passenger"/>
    <trip id="veh191" depart="130.20" departLane="best" from="496986969#0" to="-167922072#2" type="passenger"/>
    <trip id="veh192" depart="130.88" departLane="best" from="511699184#0" to="525729009" type="passenger"/>
    <trip id="veh193" depart="131.57" departLane="best" from="194920158#4" to="438397345" type="passenger"/>
    <trip id="veh194" depart="132.25" departLane="best" from="196116976#1" to="569345537#2" type="passenger"/>
    <trip id="veh195" depart="132.93" departLane="best" from="464516471#5" to="-542259076#0" type="passenger"/>
    <trip id="veh196" depart="133.61" departLane="best" from="226041032#0" to="5670106#2" type="passenger"/>
    <trip id="veh197" depart="134.29" departLane="best" from="460585328#0" to="542256453" type="passenger"/>
    <trip id="veh198" depart="134.97" departLane="best" from="496986970#0" to="569345545" type="passenger"/>
    <trip id="veh199" depart="135.66" departLane="best" from="46538335#0" to="5673561#4" type="passenger"/>
    <trip id="veh200" depart="136.34" departLane="best" from="5671709#0" to="46522008#7" type="passenger"/>
    <trip id="veh202" depart="137.70" departLane="best" from="5670114#0" to="464543615#2" type="passenger"/>
    <trip id="veh203" depart="138.38" departLane="best" from="460585328#6" to="226041031#6" type="passenger"/>
    <trip id="veh204" depart="139.06" departLane="best" from="226041031#4" to="46538371#6" type="passenger"/>
    <trip id="veh206" depart="140.43" departLane="best" from="46538375#10" to="265356028#11" type="passenger"/>
    <trip id="veh207" depart="141.11" departLane="best" from="167922077" to="265356028#13" type="passenger"/>
    <trip id="veh209" depart="142.47" departLane="best" from="46482602#0" to="194926851#2" type="passenger"/>
    <trip id="veh210" depart="143.15" departLane="best" from="499172074#8" to="-5672991" type="passenger"/>
    <trip id="veh211" depart="143.84" departLane="best" from="420908138#3" to="464543615#2" type="passenger"/>
    <trip id="veh212" depart="144.52" departLane="best" from="438385431#0" to="226041025#2" type="passenger"/>
    <trip id="veh213" depart="145.20" departLane="best" from="438385431#2" to="5671276#3" type="passenger"/>
    <trip id="veh214" depart="145.88" departLane="best" from="46522008#4" to="499172074#1" type="passenger"/>
    <trip id="veh215" depart="146.56" departLane="best" from="5671115#0" to="511699185#2" type="passenger"/>
    <trip id="veh216" depart="147.25" departLane="best" from="420892272#0" to="-167922072#2" type="passenger"/>
    <trip id="veh217" depart="147.93" departLane="best" from="46482602#0" to="46522008#3" type="passenger"/>
    <trip id="veh219" depart="149.29" departLane="best" from="384649120#0" to="46538375#8" type="passenger"/>
    <trip id="veh220" depart="149.97" departLane="best" from="420908138#2" to="195743210#2" type="passenger"/>
    <trip id="veh222" depart="151.34" departLane="best" from="420907906#3" to="46482602#3" type="passenger"/>
    <trip id="veh223" depart="152.02" departLane="best" from="-542259076#1" to="46538371#6" type="passenger"/>
    <trip id="veh224" depart="152.70" departLane="best" from="194926851#5" to="460585328#4" type="passenger"/>
    <trip id="veh225" depart="153.38" departLane="best" from="167922070" to="420907908#2" type="passenger"/>
    <trip id="veh226" depart="154.06" departLane="best" from="226041027#0" to="382740985#6" type="passenger"/>
    <trip id="veh227" depart="154.74" departLane="best" from="511699184#0" to="542258337#4" type="passenger"/>
    <trip id="veh228" depart="155.43" departLane="best" from="226041032#4" to="167922072#1" type="passenger"/>
    <trip id="veh229" depart="156.11" departLane="best" from="-511699183#2" to="464543615#1" type="passenger"/>
    <trip id="veh230" depart="156.79" departLane="best" from="588157337#0" to="420890024" type="passenger"/>
    <trip id="veh231" depart="157.47" departLane="best" from="496986969#0" to="525729010#3" type="passenger"/>
    <trip id="veh232" depart="158.15" departLane="best" from="496986969#0" to="511699183#2" type="passenger"/>
    <trip id="veh233" depart="158.83" departLane="best" from="5673561#0" to="226041022#2" type="passenger"/>
    <trip id="veh234" depart="159.52" departLane="best" from="-511699183#2" to="194926854#3" type="passenger"/>
    <trip id="veh235" depart="160.20" departLane="best" from="194926851#0" to="46538375#17" type="passenger"/>
    <trip id="veh237" depart="161.56" departLane="best" from="195743210#2" to="46522008#5" type="passenger"/>
    <trip id="veh238" depart="162.24" departLane="best" from="511699183#3" to="194920158#5" type="passenger"/>
    <trip id="veh239" depart="162.92" departLane="best" from="5670106#1-AddedOffRampEdge" to="569345538#0" type="passenger"/>
    <trip id="veh241" depart="164.29" departLane="best" from="36806906#0" to="46538375#7" type="passenger"/>
    <trip id="veh242" depart="164.97" departLane="best" from="569345537#0" to="438384693#1" type="passenger"/>
    <trip id="veh243" depart="165.65" departLane="best" from="499172074#1" to="46538371#0" type="passenger"/>
    <trip id="veh244" depart="166.33" departLane="best" from="194920158#12" to="525729010#0" type="passenger"/>
    <trip id="veh245" depart="167.01" departLane="best" from="5670197#2" to="46522008#2" type="passenger"/>
    <trip id="veh246" depart="167.70" departLane="best" from="542257008#0" to="420494981#0" type="passenger"/>
    <trip id="veh247" depart="168.38" departLane="best" from="448686048" to="420907906#2" type="passenger"/>
    <trip id="veh248" depart="169.06" departLane="best" from="464515891" to="397795464#0" type="passenger"/>
    <trip id="veh249" depart="169.74" departLane="best" from="5670197#1" to="542258337#0" type="passenger"/>
    <trip id="veh250" depart="170.42" departLane="best" from="194920158#2" to="569345537#5" type="passenger"/>
    <trip id="veh251" depart="171.10" departLane="best" from="46538375#3" to="542258337#3" type="passenger"/>
    <trip id="veh252" depart="171.79" departLane="best" from="499172074#8" to="452322756#2" type="passenger"/>
    <trip id="veh253" depart="172.47" departLane="best" from="511699178" to="569345538#1" type="passenger"/>
    <trip id="veh255" depart="173.83" departLane="best" from="46482602#0" to="46443656#10" type="passenger"/>
    <trip id="veh256" depart="174.51" departLane="best" from="452322756#3" to="500717404#0" type="passenger"/>
    <trip id="veh258" depart="175.88" departLane="best" from="5670114#0" to="167922073#0" type="passenger"/>
    <trip id="veh259" depart="176.56" departLane="best" from="460585328#2" to="46522008#6" type="passenger"/>
    <trip id="veh261" depart="177.92" departLane="best" from="5670197#2" to="196116976#13" type="passenger"/>
    <trip id="veh263" depart="179.28" departLane="best" from="384649120#0" to="5670867#1" type="passenger"/>
    <trip id="veh264" depart="179.97" departLane="best" from="194920158#0" to="499172074#3" type="passenger"/>
    <trip id="veh265" depart="180.65" departLane="best" from="46443656#3" to="511699183#3" type="passenger"/>
    <trip id="veh266" depart="181.33" departLane="best" from="499172074#1" to="46538371#6" type="passenger"/>
    <trip id="veh267" depart="182.01" departLane="best" from="46443656#4" to="542255948#1" type="passenger"/>
    <trip id="veh268" depart="182.69" departLane="best" from="194920158#0" to="226041027#4" type="passenger"/>
    <trip id="veh269" depart="183.37" departLane="best" from="46522008#3" to="460585328#9" type="passenger"/>
    <trip id="veh270" depart="184.06" departLane="best" from="464543615#0" to="438397345" type="passenger"/>
    <trip id="veh271" depart="184.74" departLane="best" from="511699183#2" to="384649120#1" type="passenger"/>
    <trip id="veh272" depart="185.42" departLane="best" from="226041032#3" to="194920158#7" type="passenger"/>
    <trip id="veh273" depart="186.10" departLane="best" from="196116976#8" to="194920158#7" type="passenger"/>
    <trip id="veh274" depart="186.78" departLane="best" from="46481747#1" to="511699184#1" type="passenger"/>
    <trip id="veh275" depart="187.46" departLane="best" from="196116976#3" to="226041027#2" type="passenger"/>
    <trip id="veh276" depart="188.15" departLane="best" from="46443656#0" to="499172074#8" type="passenger"/>
    <trip id="veh277" depart="188.83" departLane="best" from="265356028#7" to="167922076" type="passenger"/>
    <trip id="veh278" depart="189.51" departLane="best" from="226041022#0" to="226041028#1" type="passenger"/>
    <trip id="veh279" depart="190.19" departLane="best" from="196116976#12" to="-167922077" type="passenger"/>
    <trip id="veh280" depart="190.87" departLane="best" from="46481747#0" to="265356028#11" type="passenger"/>
    <trip id="veh281" depart="191.55" departLane="best" from="569345540#0" to="46481747#0" type="passenger"/>
    <trip id="veh283" depart="192.92" departLane="best" from="5671115#3" to="46443656#2" type="passenger"/>
    <trip id="veh284" depart="193.60" departLane="best" from="5671276#0" to="46482602#8" type="passenger"/>
    <trip id="veh285" depart="194.28" departLane="best" from="196116976#3" to="-542259076#1" type="passenger"/>
    <trip id="veh286" depart="194.96" departLane="best" from="5673515#1" to="46443656#0" type="passenger"/>
    <trip id="veh287" depart="195.65" departLane="best" from="5670114#0" to="438384693#1" type="passenger"/>
    <trip id="veh288" depart="196.33" departLane="best" from="167922076" to="46538371#2" type="passenger"/>
    <trip id="veh289" depart="197.01" departLane="best" from="167922071" to="194926854#1" type="passenger"/>
    <trip id="veh290" depart="197.69" departLane="best" from="46482602#7" to="324118554#0" type="passenger"/>
    <trip id="veh291" depart="198.37" departLane="best" from="569345547#1" to="194920158#6" type="passenger"/>
    <trip id="veh292" depart="199.05" departLane="best" from="525729010#0" to="46522008#4" type="passenger"/>
    <trip id="veh293" depart="199.74" departLane="best" from="542257430" to="226041028#0" type="passenger"/>
    <trip id="veh294" depart="200.42" departLane="best" from="464516471#7" to="452322756#4" type="passenger"/>
    <trip id="veh295" depart="201.10" departLane="best" from="458177130" to="5670124#1" type="passenger"/>
    <trip id="veh296" depart="201.78" departLane="best" from="569345546" to="324118554#0" type="passenger"/>
    <trip id="veh297" depart="202.46" departLane="best" from="46538375#0" to="46522008#6" type="passenger"/>
    <trip id="veh298" depart="203.14" departLane="best" from="226041025#2" to="226041027#0" type="passenger"/>