<?xml version="1.0" encoding="UTF-8"?>

<!-- generated on Sat Jun 30 02:30:24 2018 by SUMO duarouter Version svn
<?xml version="1.0" encoding="UTF-8"?>

<configuration xmlns:xsi="http://www.w3.org/2001/XMLSchema-instance" xsi:noNamespaceSchemaLocation="http://sumo.dlr.de/xsd/duarouterConfiguration.xsd">

    <input>
        <net-file value="osm.net.xml"/>
        <trip-files value="osm.passenger.trips.xml"/>
    </input>

    <output>
        <output-file value="osm.passenger.rou.xml"/>
    </output>

    <processing>
        <ignore-errors value="true"/>
    </processing>

    <time>
        <begin value="0"/>
        <end value="3600.0"/>
    </time>

    <report>
        <no-warnings value="true"/>
        <no-step-log value="true"/>
    </report>

</configuration>
-->

<routes xmlns:xsi="http://www.w3.org/2001/XMLSchema-instance" xsi:noNamespaceSchemaLocation="http://sumo.dlr.de/xsd/routes_file.xsd">
    <vType id="passenger" vClass="passenger"/>
    <vehicle id="veh1" type="passenger" depart="0.68" departLane="best">
        <route edges="265356028#5 196116976#1 196116976#3 324118554#0 324118554#1 382740985#0 382740985#3 382740985#6 588157337#0 569345540#0 569345540#3 167922071 483360105 397795463 569345542#1 397795464#0 226041027#5"/>
    </vehicle>
    <vehicle id="veh2" type="passenger" depart="1.36" departLane="best">
        <route edges="511699178 5673515#0 5673515#1 5672464 127693103#1 464516471#0 464516471#1 464516471#2 464516471#3 464516471#4 464516471#5 464516471#6 464516471#7 464516471#8 464516471#9 569345537#0 569345537#2 420905130#0 420905130#2 46538371#0 46538371#2 46538371#3 46538371#4 46538371#5 420892271#0 46538375#5 46538375#6"/>
    </vehicle>
    <vehicle id="veh3" type="passenger" depart="2.05" departLane="best">
        <route edges="5671709#0 5671709#1 420905130#0 420905130#2 382740985#3 382740985#6 588157337#0 569345540#0 569345540#3 167922073#0"/>
    </vehicle>
    <vehicle id="veh5" type="passenger" depart="3.41" departLane="best">
        <route edges="226041027#3 226041027#4 226041027#5 226041026 464516471#0 464516471#1 464516471#2 464516471#3 464516471#4 464516471#5 464516471#6 464516471#7 542258337#0 542258337#1 542258337#2 542258337#3 542258337#4 46443656#0 46443656#2 46443656#3 46443656#4 46443656#5 46443656#6 46443656#7 46443656#8"/>
    </vehicle>
    <vehicle id="veh6" type="passenger" depart="4.09" departLane="best">
        <route edges="-542259076#0 -525729008#1 -167922076 35027229#0 35027229#1 542258061 226041022#0 226041022#1 226041022#2"/>
    </vehicle>
    <vehicle id="veh7" type="passenger" depart="4.77" departLane="best">
        <route edges="483360105 397795463 569345542#1 397795464#0 397795464#1 569345544 167922070 195743344 569345545 569345547#0 569345547#1 569345547#2 464543615#0 464543615#1 464543615#2"/>
    </vehicle>
    <vehicle id="veh8" type="passenger" depart="5.45" departLane="best">
        <route edges="226041027#4 226041027#5 226041026 464516471#0 464516471#1 464516471#2 464516471#3 464516471#4 464516471#5 464516471#6 464516471#7 464516471#8 464516471#9 569345537#0 569345537#2 569345537#4 46521993"/>
    </vehicle>
    <vehicle id="veh9" type="passenger" depart="6.14" departLane="best">
        <route edges="542258337#4 569345540#3 167922071 483360105 397795463 569345542#1 397795464#0 397795464#1 569345544 -167922076 -167922072#2"/>
    </vehicle>
    <vehicle id="veh10" type="passenger" depart="6.82" departLane="best">
        <route edges="542258337#2 542258337#3 542258337#4 569345540#3 167922073#0 167922073#1 167922073#2 167922073#3 464516471#6 464516471#7 464516471#8 464516471#9 569345537#0 569345537#2 569345537#4 569345537#5 499172074#1-AddedOnRampEdge"/>
    </vehicle>
    <vehicle id="veh11" type="passenger" depart="7.50" departLane="best">
        <route edges="384649120#0 384649120#1-AddedOnRampEdge 384649120#1 384649120#3 36806906#1 500717404#0 500717404#1 500717399 464543614 194926854#3 194926854#4"/>
    </vehicle>
    <vehicle id="veh12" type="passenger" depart="8.18" departLane="best">
        <route edges="569345537#0 569345537#2 420905130#0 420905130#2 382740985#3 382740985#6 588157337#0 569345540#0 569345540#3 167922071 483360105 397795463 569345542#1 397795464#0 397795464#1 569345544 -167922076 35027229#0 35027229#1 500717410 500717404#0 542257009#0 384649120#3 384649120#4"/>
    </vehicle>
    <vehicle id="veh13" type="passenger" depart="8.86" departLane="best">
        <route edges="194920158#0 194920158#2 194920158#4 194920158#5 194920158#6 194920158#7 194920158#8 194920158#9 194920158#10 194920158#11 196116976#11 196116976#12 167922074#0 167922074#1"/>
    </vehicle>
    <vehicle id="veh14" type="passenger" depart="9.54" departLane="best">
        <route edges="5670197#0 5670197#1 5670197#2 194926854#4 125479721 542257430 195743345 125480075 194926851#0 194926851#1 194926851#2 194926851#3 46482602#5 46482602#6 46482602#7 46482602#8 46482602#9 46482602#10 397795463 569345542#1 46522008#2 46522008#3"/>
    </vehicle>
    <vehicle id="veh15" type="passenger" depart="10.23" departLane="best">
        <route edges="542258337#3 542258337#4 569345540#3 167922071 483360105 397795463 569345542#1 397795464#0 397795464#1 569345544 -167922076 35027229#0 35027229#1 500717410 500717404#0"/>
    </vehicle>
    <vehicle id="veh16" type="passenger" depart="10.91" departLane="best">
        <route edges="46481747#1 384649120#1-AddedOnRampEdge 384649120#1 384649120#3 384649120#4 440122868 448686048 127693103#0 127693103#1 464516471#0 464516471#1 464516471#2 464516471#3 464516471#4 464516471#5 464516471#6 464516471#7 464516471#8 464516471#9 569345538#0 569345538#1 569345538#2 569345539 588157337#0 569345540#0"/>
    </vehicle>
    <vehicle id="veh17" type="passenger" depart="11.59" departLane="best">
        <route edges="420892272#0 420892271#0 5671276#0 5671276#3 5671276#6 5671276#9 5671276#11 5671276#12 420907908#0 420907908#1 420907908#2 194926855 525729009 525729010#0 5670197#1 5670197#2 542257008#0 569345547#2 464543615#0 464543615#1 5673561#4 194926854#1 46481747#0"/>
    </vehicle>
    <vehicle id="veh18" type="passenger" depart="12.27" departLane="best">
        <route edges="5670114#0 5670114#1 542258337#0 542258337#1 542258337#2 542258337#3 542258337#4 46443656#0 46443656#2 46443656#3 46443656#4 46443656#5 46443656#6 46443656#7 46443656#8 5671276#9 5671276#11 5671276#12 420907908#0 46522008#7 46522008#8"/>
    </vehicle>
    <vehicle id="veh19" type="passenger" depart="12.95" departLane="best">
        <route edges="5671115#0 5671115#2 5671276#11 5671276#12 46482602#2 46482602#3 46482602#4 46482602#5 46482602#6 46482602#7 46482602#8 46482602#9"/>
    </vehicle>
    <vehicle id="veh20" type="passenger" depart="13.63" departLane="best">
        <route edges="499172074#5 499172074#8 196116976#3 324118554#0 324118554#1 382740985#0 382740985#3 382740985#6 588157337#0 569345540#0 569345540#3 167922071 483360105 397795463 569345542#1 397795464#0 397795464#1 569345544 -167922076 -167922072#2 -167922072#1 -167922072#0 -511699183#3"/>
    </vehicle>
    <vehicle id="veh22" type="passenger" depart="15.00" departLane="best">
        <route edges="167922077 -542259076#1 -542259076#0 125480075 194926851#0 194926851#1 194926851#2 194926851#3 46482602#5 46482602#6 46482602#7 46482602#8 46482602#9 46482602#10 420494981#0 420494981#1 464516471#2 464516471#3 464516471#4 464516471#5 226041029#0 226041029#1"/>
    </vehicle>
    <vehicle id="veh23" type="passenger" depart="15.68" departLane="best">
        <route edges="194920158#12 194920158#13 420908138#0 420908138#2 420908138#3 464516471#9 569345537#0 569345537#2 420905130#0 420905130#2 46538371#0 46538371#2 46538371#3 420890028 420890024 420890025 420890029 265356028#5-AddedOnRampEdge 265356028#5 265356028#6 265356028#7 265356028#8 265356028#9 265356028#10 265356028#11 265356028#12 265356028#13"/>
    </vehicle>
    <vehicle id="veh24" type="passenger" depart="16.36" departLane="best">
        <route edges="46538375#3 5671276#0 5671276#3 194920158#4 194920158#5 194920158#6 194920158#7 194920158#8 194920158#9 194920158#10 194920158#11 194920158#12 194920158#13 420908138#0 420908138#2 420908138#3 464516471#9 569345537#0 569345537#2 420905130#0 420905130#2"/>
    </vehicle>
    <vehicle id="veh25" type="passenger" depart="17.04" departLane="best">
        <route edges="420890029 265356028#5-AddedOnRampEdge 265356028#5 196116976#1 196116976#3 324118554#0 324118554#1 382740985#0 382740985#3 382740985#6 588157337#0 569345540#0 569345540#3 167922071 483360105 397795463 569345542#1 397795464#0 226041027#5 226041026"/>
    </vehicle>
    <vehicle id="veh26" type="passenger" depart="17.72" departLane="best">
        <route edges="483360105 397795463 569345542#1 46522008#2 46522008#3 46522008#4 46522008#5 46522008#6"/>
    </vehicle>
    <vehicle id="veh27" type="passenger" depart="18.41" departLane="best">
        <route edges="195743345 -525729008#1 -167922076 35027229#0 35027229#1 500717410 500717404#0 500717404#1 500717399"/>
    </vehicle>
    <vehicle id="veh28" type="passenger" depart="19.09" departLane="best">
        <route edges="195743210#0 195743210#1 195743210#2 525729010#0 5670197#1 5670197#2 194926854#4 125479721 542257430 195743345 125480075 194926851#0 194926851#1 46522008#5 46522008#6 420907908#1 420907908#2"/>
    </vehicle>
    <vehicle id="veh29" type="passenger" depart="19.77" departLane="best">
        <route edges="569345545 569345546 542258061 440122868 448686048 127693103#0 127693103#1 464516471#0 464516471#1 464516471#2 464516471#3 464516471#4 464516471#5 464516471#6 464516471#7 464516471#8 464516471#9 569345537#0 569345537#2 420905130#0 420905130#2 46538371#0 46538371#2 46538371#3 46538371#4 46538371#5 46538371#6"/>
    </vehicle>
    <vehicle id="veh30" type="passenger" depart="20.45" departLane="best">
        <route edges="46482602#4 194926851#4 194926851#5 226041028#0 226041028#1 167922074#0 167922074#1 167922071 483360105"/>
    </vehicle>
    <vehicle id="veh32" type="passenger" depart="21.81" departLane="best">
        <route edges="226041027#0 226041027#1 226041027#2 226041027#3 226041027#4 397795464#1 569345544 -167922076 35027229#0 5673323#2"/>
    </vehicle>
    <vehicle id="veh33" type="passenger" depart="22.50" departLane="best">
        <route edges="5671276#12 46482602#2 46482602#3 46482602#4 46482602#5 46482602#6 46482602#7 46482602#8 46482602#9 46482602#10 397795463 569345542#1 397795464#0 397795464#1 569345544 -167922076 35027229#0 35027229#1"/>
    </vehicle>
    <vehicle id="veh34" type="passenger" depart="23.18" departLane="best">
        <route edges="496986969#0 496986969#1 5672752#0 -5672752#0 496989355#0 496989355#1 496989355#3 382740985#0 382740985#3 382740985#6 588157337#0 569345540#0 569345540#3 167922073#0 167922073#1 167922073#2 167922073#3 226041029#0 226041029#1 384178816#1 511699175 458180183 438397345 5672149#0 438384693#1"/>
    </vehicle>
    <vehicle id="veh35" type="passenger" depart="23.86" departLane="best">
        <route edges="5672991 511699181 5673515#0 5673515#1 5672464 127693103#1 464516471#0 46522008#0 46522008#1 46522008#2 46522008#3 46522008#4 46522008#5 46522008#6 420907908#1 420907908#2 194926847 460585328#2"/>
    </vehicle>
    <vehicle id="veh36" type="passenger" depart="24.54" departLane="best">
        <route edges="265356028#0 265356028#4 265356028#5-AddedOnRampEdge 265356028#5 196116976#1 196116976#3 324118554#0 324118554#1 382740985#0 382740985#3 382740985#6 569345541#0 569345541#1 226041030#0 226041030#1 226041030#2 226041031#0 226041031#1 226041031#2 226041031#3"/>
    </vehicle>
    <vehicle id="veh37" type="passenger" depart="25.22" departLane="best">
        <route edges="46482602#6 46482602#7 46482602#8 46482602#9 46482602#10 420494981#0 420494981#1 464516471#2 464516471#3 464516471#4 464516471#5 464516471#6 464516471#7 464516471#8 464516471#9 569345537#0 569345537#2 569345537#4 569345537#5 499172074#1-AddedOnRampEdge 499172074#1 499172074#2 499172074#3 496989355#3 226041032#0"/>
    </vehicle>
    <vehicle id="veh38" type="passenger" depart="25.90" departLane="best">
        <route edges="46522008#4 194926851#2 194926851#3 194926851#4 194926851#5 194926851#6 420907906#0 420907906#1 420907906#2 420907906#3 46538371#4 46538371#5 420892271#0 5671276#0"/>
    </vehicle>
    <vehicle id="veh39" type="passenger" depart="26.59" departLane="best">
        <route edges="420907908#1 226041027#0 226041027#1 226041027#2 226041027#3"/>
    </vehicle>
    <vehicle id="veh40" type="passenger" depart="27.27" departLane="best">
        <route edges="569345547#2 464543615#0 46481747#1 384649120#1-AddedOnRampEdge 384649120#1 384649120#3 384649120#4 440122868 448686048 127693103#0 127693103#1 464515890"/>
    </vehicle>
    <vehicle id="veh41" type="passenger" depart="27.95" departLane="best">
        <route edges="194920158#0 194920158#2 5671276#6 5671276#9 5671276#11 5671276#12 420907908#0 420907908#1 420907908#2 194926855 -542259076#1 -542259076#0 -525729008#1"/>
    </vehicle>
    <vehicle id="veh42" type="passenger" depart="28.63" departLane="best">
        <route edges="194920158#5 194920158#6 194920158#7 194920158#8 194920158#9 194920158#10 194920158#11 194920158#12 194920158#13 420908138#0 420908138#2 420908138#3 464516471#9 569345537#0 569345537#2 420905130#0 420905130#2 46538371#0"/>
    </vehicle>
    <vehicle id="veh43" type="passenger" depart="29.31" departLane="best">
        <route edges="542257982#0 569345547#1 542257008#1 542257009#0 542257009#1 438385431#4"/>
    </vehicle>
    <vehicle id="veh44" type="passenger" depart="29.99" departLane="best">
        <route edges="569345547#2 464543615#0 46481747#1 384649120#1-AddedOnRampEdge 384649120#1 384649120#3 384649120#4 440122868 448686048 127693103#0 127693103#1 464516471#0 464516471#1 464516471#2 464516471#3 464516471#4 464516471#5 464516471#6 464516471#7"/>
    </vehicle>
    <vehicle id="veh45" type="passenger" depart="30.68" departLane="best">
        <route edges="569345539 588157337#0 569345540#0 569345540#3 167922073#0 167922073#1 167922073#2 167922073#3 226041029#0 226041029#1 384178816#1 511699175 458180183 5670124#0 5670124#1"/>
    </vehicle>
    <vehicle id="veh46" type="passenger" depart="31.36" departLane="best">
        <route edges="-438384692#1 438384692#1 511699183#0 511699183#1 511699183#2 511699183#3 127693103#0 127693103#1 464516471#0 464516471#1 464516471#2 464516471#3 464516471#4 464516471#5 464516471#6 464516471#7 464516471#8 464516471#9 569345537#0 569345537#2 569345537#4 569345537#5 499172074#1-AddedOnRampEdge 499172074#1 499172074#2 499172074#3"/>
    </vehicle>
    <vehicle id="veh47" type="passenger" depart="32.04" departLane="best">
        <route edges="499172074#0 499172074#1-AddedOnRampEdge 499172074#1 499172074#2 499172074#3 496989355#3 382740985#0 382740985#3 382740985#6 588157337#0 569345540#0 569345540#3 167922071 483360105 397795463 569345542#1 397795464#0 397795464#1 569345544 167922070 195743344 569345545 569345547#0 569345547#1 569345547#2 464543615#0"/>
    </vehicle>
    <vehicle id="veh50" type="passenger" depart="34.08" departLane="best">
        <route edges="5671276#12 46482602#2 46482602#3 46482602#4 194926851#4 194926851#5 194926851#6 420907906#0 420907906#1 420907906#2 420907906#3 420890028 420890024 324118558 324118554#0 324118554#1 226041032#0"/>
    </vehicle>
    <vehicle id="veh51" type="passenger" depart="34.77" departLane="best">
        <route edges="46443656#9 460585328#8 194920158#2 194920158#4 194920158#5 194920158#6 194920158#7 194920158#8 194920158#9 194920158#10 194920158#11 196116976#11 196116976#12"/>
    </vehicle>
    <vehicle id="veh52" type="passenger" depart="35.45" departLane="best">
        <route edges="5672991 511699181 5673515#0 5673515#1 5672464 127693103#1 464516471#0 464516471#1 46522000#0 46522000#1 5670225"/>
    </vehicle>
    <vehicle id="veh53" type="passenger" depart="36.13" departLane="best">
        <route edges="324118557#0 324118557#1 226041033 324118558 196116976#5 46538371#3 46538371#4 46538371#5 46538371#6"/>
    </vehicle>
    <vehicle id="veh54" type="passenger" depart="36.81" departLane="best">
        <route edges="46538371#3 46538371#4 46538371#5 420892271#0 5671276#0 5671276#3 5671276#6 5671276#9 5671276#11 5671276#12 420907908#0 420907908#1 420907908#2 194926855 525729009 525729010#0 5670197#1 5670197#2 542257008#0 569345547#2 464543614 194926854#3"/>
    </vehicle>
    <vehicle id="veh55" type="passenger" depart="37.49" departLane="best">
        <route edges="525729010#0 5670197#1 5670197#2 542257008#0 569345547#2 464543615#0 464543615#1"/>
    </vehicle>
    <vehicle id="veh56" type="passenger" depart="38.17" departLane="best">
        <route edges="542256188#3 46481747#0 46481747#1 384649120#1-AddedOnRampEdge 384649120#1 384649120#3 384649120#4 440122868 448686048 127693103#0 127693103#1 464516471#0 464516471#1 464516471#2 464516471#3 464516471#4 464516471#5 464516471#6 464516471#7 464516471#8"/>
    </vehicle>
    <vehicle id="veh57" type="passenger" depart="38.86" departLane="best">
        <route edges="-167922072#0 127693103#0 127693103#1 464516471#0 464516471#1 464516471#2 464516471#3 464516471#4 464516471#5 464516471#6 464516471#7 464516471#8 464516471#9 569345537#0 569345537#2 420905130#0 420905130#2 382740985#3"/>
    </vehicle>
    <vehicle id="veh58" type="passenger" depart="39.54" departLane="best">
        <route edges="-511699183#2 -511699183#1 -511699183#0 511699185#1 511699185#2 5670106#0 5670106#1 5670106#1-AddedOffRampEdge 511699182 511699181 438384693#0 5672149#1"/>
    </vehicle>
    <vehicle id="veh59" type="passenger" depart="40.22" departLane="best">
        <route edges="5671276#3 194920158#4 194920158#5 194920158#6 194920158#7 194920158#8 194920158#9 194920158#10 194920158#11 194920158#12 194920158#13 569345540#0 569345540#3 167922073#0 167922073#1 167922073#2 167922073#3 464516471#6 464516471#7 542258337#0 542258337#1 542258337#2 542258337#3 542258337#4"/>
    </vehicle>
    <vehicle id="veh60" type="passenger" depart="40.90" departLane="best">
        <route edges="35027229#0 35027229#1 542258061 440122868 448686048 -511699183#3 -511699183#2 -511699183#1 -511699183#0 -438384692#1 -438384692#0 -5672991"/>
    </vehicle>
    <vehicle id="veh61" type="passenger" depart="41.58" departLane="best">
        <route edges="5671276#3 5671276#6 5671276#9 5671276#11 5671276#12 46482602#2 46482602#3 46482602#4 46482602#5 46482602#6 46482602#7 46482602#8 46482602#9 46482602#10 420494981#0 420494981#1 46522000#0 46522000#1 458180183 438397345 464515891 511699184#0 511699184#1 511699185#1 511699185#2 5670106#0 5670106#1 5670106#1-AddedOffRampEdge 511699182 511699181 5673515#0"/>
    </vehicle>
    <vehicle id="veh62" type="passenger" depart="42.26" departLane="best">
        <route edges="167922074#0 167922074#1 167922073#0 167922073#1 167922073#2 167922073#3 226041029#0 226041029#1 384178816#1 511699175 458180183 438397345 464515891 511699184#0 511699184#1"/>
    </vehicle>
    <vehicle id="veh64" type="passenger" depart="43.63" departLane="best">
        <route edges="460585328#7 460585328#8 194920158#2 5671276#6 5671276#9 5671276#11 5671276#12 420907908#0 420907908#1 420907908#2 194926855 525729009 525729010#0 5670197#1 5670197#2 542257008#0 569345547#2 464543615#0 464543615#1 464543615#2"/>
    </vehicle>
    <vehicle id="veh65" type="passenger" depart="44.31" departLane="best">
        <route edges="265356028#0 265356028#4 265356028#5-AddedOnRampEdge 265356028#5 196116976#1 196116976#3 324118554#0 324118554#1 382740985#0 382740985#3 382740985#6 588157337#0 569345540#0 569345540#3 167922073#0 167922073#1 167922073#2 167922073#3 226041029#0 226041029#1 384178816#1 511699175 5670225"/>
    </vehicle>
    <vehicle id="veh66" type="passenger" depart="44.99" departLane="best">
        <route edges="438397345 464515891 5672464 127693103#1 464516471#0 46522008#0 46522008#1 46522008#2 46522008#3 46522008#4 46522008#5 46522008#6 420907908#1 226041027#0"/>
    </vehicle>
    <vehicle id="veh67" type="passenger" depart="45.67" departLane="best">
        <route edges="46482602#0 46482602#1 46482602#2 46482602#3 46482602#4 46482602#5 46482602#6 46482602#7 46482602#8 46482602#9 46482602#10 397795463 569345542#1 397795464#0 397795464#1 569345544 -167922076 35027229#0 35027229#1 500717410 500717404#0"/>
    </vehicle>
    <vehicle id="veh68" type="passenger" depart="46.35" departLane="best">
        <route edges="226041022#3 438385431#2 36806906#0 384649120#4 440122868 448686048 127693103#0 127693103#1 464516471#0 464516471#1 464516471#2 464516471#3 464516471#4 464516471#5 464516471#6 464516471#7 464516471#8 464516471#9 569345537#0 569345537#2 420905130#0 420905130#2 46538371#0 46538371#2 46538371#3 420890028 420890024 324118558"/>
    </vehicle>
    <vehicle id="veh69" type="passenger" depart="47.04" departLane="best">
        <route edges="569345547#1 542257008#1 542257009#0 384649120#3 384649120#4 440122868 448686048 127693103#0 127693103#1 464516471#0 464516471#1 464516471#2 464516471#3 464516471#4 464516471#5 464516471#6 464516471#7 464516471#8 464516471#9 569345537#0 569345537#2 420905130#0 420905130#2 46538371#0 46538371#2 196116976#6 46538375#9 46538375#10"/>
    </vehicle>
    <vehicle id="veh70" type="passenger" depart="47.72" departLane="best">
        <route edges="194926846#1 194926855 -542259076#1 -542259076#0 125480075 194926851#0 194926851#1 194926851#2 194926851#3 194926851#4 194926851#5 226041028#0"/>
    </vehicle>
    <vehicle id="veh71" type="passenger" depart="48.40" departLane="best">
        <route edges="384649120#0 384649120#1-AddedOnRampEdge 384649120#1 384649120#3 384649120#4 440122868 448686048 127693103#0 127693103#1 464516471#0 464516471#1 464516471#2 464516471#3 464516471#4 464516471#5 464516471#6 464516471#7 464516471#8 464516471#9 569345537#0 569345537#2 569345537#4 46521993"/>
    </vehicle>
    <vehicle id="veh72" type="passenger" depart="49.08" departLane="best">
        <route edges="226041029#1 384178816#1 511699175 458180183 5670124#0 5670124#1 46522008#0 46522008#1 397795464#0 397795464#1 569345543 194926851#0 226041027#3 226041027#4"/>
    </vehicle>
    <vehicle id="veh73" type="passenger" depart="49.76" departLane="best">
        <route edges="167922074#1 167922073#0 167922073#1 167922073#2 167922073#3 464516471#6 464516471#7 464516471#8 464516471#9 569345537#0 569345537#2 420905130#0 420905130#2 46538371#0 46538371#2 46538371#3"/>
    </vehicle>
    <vehicle id="veh74" type="passenger" depart="50.45" departLane="best">
        <route edges="226041029#0 226041029#1 384178816#1 511699175 458180183 5670124#0 5670124#1 464516471#1 464516471#2 464516471#3 464516471#4 464516471#5 464516471#6 464516471#7 464516471#8 464516471#9 569345537#0 569345537#2 420905130#0 420905130#2 46538371#0 46538371#2 46538371#3 46538371#4 46538371#5 420892271#0 5671276#0 5671276#3"/>
    </vehicle>
    <vehicle id="veh75" type="passenger" depart="51.13" departLane="best">
        <route edges="5671115#0 5671115#2 5671276#11 5671276#12 46482602#2 46482602#3 46482602#4 46482602#5 46482602#6 46482602#7 46482602#8 46482602#9 46482602#10 397795463 569345542#1 397795464#0 397795464#1 569345544 -167922076 -167922072#2 -167922072#1 -167922072#0 127693103#0"/>
    </vehicle>
    <vehicle id="veh76" type="passenger" depart="51.81" departLane="best">
        <route edges="226041031#0 226041031#1 226041031#2 226041031#3 5671276#3 194920158#4 194920158#5 194920158#6 194920158#7 194920158#8 194920158#9 194920158#10 194920158#11 194920158#12 194920158#13 420908138#0 420908138#2 420908138#3 464516471#9 569345537#0 46538375#16 46538375#17"/>
    </vehicle>
    <vehicle id="veh77" type="passenger" depart="52.49" departLane="best">
        <route edges="5673323#2 195743209 195743345 125480075 194926851#0 194926851#1 194926851#2 194926851#3 46482602#5 46482602#6"/>
    </vehicle>
    <vehicle id="veh78" type="passenger" depart="53.17" departLane="best">
        <route edges="460585328#5 460585328#6 5671115#2 5671276#11 5671276#12 420907908#0 420907908#1 420907908#2 194926855 525729009 525729010#0 5670197#1 5670197#2 542257008#0 569345547#2 464543615#0 464543615#1 5673561#4 542255948#0"/>
    </vehicle>
    <vehicle id="veh79" type="passenger" depart="53.85" departLane="best">
        <route edges="438397345 464515891 5672464 127693103#1 464516471#0 46522008#0 46522008#1 46522008#2 46522008#3 46522008#4 46522008#5 46522008#6 46522008#7 460585328#4 460585328#5 460585328#6"/>
    </vehicle>
    <vehicle id="veh80" type="passenger" depart="54.54" departLane="best">
        <route edges="511699178 5673515#0 5673515#1 5672464 127693103#1 464516471#0 464516471#1 464516471#2 464516471#3 464516471#4 464516471#5 464516471#6 464516471#7 464516471#8 464516471#9 569345537#0 569345537#2 420905130#0 420905130#2 46538371#0 46538371#2 46538371#3 46538371#4 46538371#5 420892271#0 46538375#5"/>
    </vehicle>
    <vehicle id="veh81" type="passenger" depart="55.22" departLane="best">
        <route edges="569345543 194926851#0 194926851#1 194926851#2 194926851#3 194926851#4 194926851#5 226041028#0 226041028#1 167922074#0 167922074#1"/>
    </vehicle>
    <vehicle id="veh82" type="passenger" depart="55.90" departLane="best">
        <route edges="420908138#0 420908138#2 420908138#3 464516471#9 569345538#0 569345538#1 569345538#2 569345539 588157337#0 569345540#0 569345540#3 167922071 483360105 397795463"/>
    </vehicle>
    <vehicle id="veh83" type="passenger" depart="56.58" departLane="best">
        <route edges="5671115#0 460585328#7 460585328#8 460585328#9 460585328#10 46538375#3 5671276#0 226041031#4"/>
    </vehicle>
    <vehicle id="veh84" type="passenger" depart="57.26" departLane="best">
        <route edges="196116976#7 196116976#8 196116976#11 46443656#3 46443656#4 46443656#5 46443656#6 46443656#7 46443656#8 5671276#9 5671276#11 452322756#3 452322756#4"/>
    </vehicle>
    <vehicle id="veh86" type="passenger" depart="58.63" departLane="best">
        <route edges="226041032#0 226041032#3 226041032#4 569345537#5 499172074#1-AddedOnRampEdge 499172074#1 499172074#2 499172074#3 496989355#3 382740985#0 382740985#3 382740985#6 588157337#0 569345540#0 569345540#3 167922073#0 167922073#1 167922073#2 167922073#3 226041029#0 226041029#1 384178816#1 511699175 458180183 438397345 5672149#0 5672149#1"/>
    </vehicle>
    <vehicle id="veh87" type="passenger" depart="59.31" departLane="best">
        <route edges="458177130 5670124#0 5670124#1"/>
    </vehicle>
    <vehicle id="veh88" type="passenger" depart="59.99" departLane="best">
        <route edges="46482602#10 397795463 569345542#1 46522008#2 46522008#3 46522008#4 46522008#5 46522008#6 420907908#1 420907908#2 194926855 -542259076#1"/>
    </vehicle>
    <vehicle id="veh89" type="passenger" depart="60.67" departLane="best">
        <route edges="588157337#0 569345540#0 46443656#0 46443656#2 46443656#3 46443656#4 46443656#5 46443656#6 46443656#7 46443656#8 5671276#9 5671276#11 5671276#12 420907908#0 420907908#1 420907908#2 194926855 -542259076#1 542259076#1"/>
    </vehicle>
    <vehicle id="veh90" type="passenger" depart="61.35" departLane="best">
        <route edges="569345538#2 569345539 588157337#0 569345540#0 569345540#3 167922073#0 167922073#1 167922073#2 167922073#3 226041029#0 226041029#1 384178816#1 511699175 458180183 438397345 5672149#0 5672149#1"/>
    </vehicle>
    <vehicle id="veh91" type="passenger" depart="62.03" departLane="best">
        <route edges="46443656#2 46443656#3 46443656#4 46443656#5 46443656#6 46443656#7 46443656#8 5671276#9 5671276#11 5671276#12 420907908#0 420907908#1 226041027#0 226041027#1"/>
    </vehicle>
    <vehicle id="veh92" type="passenger" depart="62.72" departLane="best">
        <route edges="420907908#2 194926855 -542259076#1 -542259076#0 125480075 194926851#0 194926851#1 194926851#2 194926851#3 46482602#5 46482602#6 46482602#7 46482602#8 46482602#9 46482602#10 420494981#0 420494981#1 46522000#0 46522000#1 458180183 438397345 464515891 511699184#0 511699184#1 -438384692#1 -438384692#0 -5672991"/>
    </vehicle>
    <vehicle id="veh93" type="passenger" depart="63.40" departLane="best">
        <route edges="420892272#0 420892271#0 5671276#0 5671276#3 5671276#6 5671276#9 5671276#11 5671276#12 46482602#2 46482602#3 46482602#4 46482602#5 46482602#6 46482602#7 46482602#8 46482602#9 46482602#10 397795463 569345542#1 397795464#0 397795464#1 569345544"/>
    </vehicle>
    <vehicle id="veh94" type="passenger" depart="64.08" departLane="best">
        <route edges="265356028#0 265356028#4 265356028#5-AddedOnRampEdge 265356028#5 196116976#1 196116976#3 196116976#5 46538371#3 46538371#4 46538371#5 420892271#0 5671276#0 5671276#3 5671276#6 5671276#9 5671276#11 5671276#12 420907908#0 420907908#1 420907908#2 194926855 525729009 525729010#0 525729010#3"/>
    </vehicle>
    <vehicle id="veh95" type="passenger" depart="64.76" departLane="best">
        <route edges="460585328#0 460585328#2 460585328#3 460585328#4 46482602#1 46482602#2 46482602#3 46482602#4 46482602#5 46482602#6 46482602#7 46482602#8 46482602#9 46482602#10 420494981#0 420494981#1 46522000#0 46522000#1 458180183 438397345 464515891 511699184#0 511699184#1 511699185#1 511699185#2 438385431#0 438385431#1 438385431#2 438385431#3 438385431#4"/>
    </vehicle>
    <vehicle id="veh96" type="passenger" depart="65.44" departLane="best">
        <route edges="569345537#0 569345537#2 420905130#0 420905130#2 382740985#3 382740985#6 588157337#0 569345540#0 569345540#3 167922071 483360105 397795463 569345542#1 397795464#0 397795464#1 569345544 167922070 195743344 569345545 569345547#0 569345547#1"/>
    </vehicle>
    <vehicle id="veh97" type="passenger" depart="66.12" departLane="best">