<routes><vType accel="2" decel="4.5" id="Car" length="5.0" maxSpeed="100.0" sigma="0.5" /><route edges="e_2_1_2_2 e_2_2_2_3" id="route_sn_2" /><route edges="e_2_3_2_2 e_2_2_2_1" id="route_ns_2" /><route edges="e_3_1_3_2 e_3_2_3_3" id="route_sn_3" /><route edges="e_3_3_3_2 e_3_2_3_1" id="route_ns_3" /><route edges="e_4_1_4_2 e_4_2_4_3" id="route_sn_4" /><route edges="e_4_3_4_2 e_4_2_4_1" id="route_ns_4" /><route edges="e_1_2_2_2 e_2_2_3_2 e_3_2_4_2 e_4_2_5_2" id="route_we_2" /><route edges="e_5_2_4_2 e_4_2_3_2 e_3_2_2_2 e_2_2_1_2" id="route_ew_2" /><flow begin="0" depart="1" end="3600" id="flow_ns_2" probability="0.03" route="route_ns_2" type="Car" /><flow begin="0" depart="1" end="3600" id="flow_ns_3" probability="0.03" route="route_ns_3" type="Car" /><flow begin="0" depart="1" end="3600" id="flow_ns_4" probability="0.03" route="route_ns_4" type="Car" /><flow begin="0" depart="1" end="3600" id="flow_sn_2" probability="0.03" route="route_sn_2" type="Car" /><flow begin="0" depart="1" end="3600" id="flow_sn_3" probability="0.03" route="route_sn_3" type="Car" /><flow begin="0" depart="1" end="3600" id="flow_sn_4" probability="0.03" route="route_sn_4" type="Car" /><flow begin="0" depart="1" end="3600" id="flow_ew_2" probability="0.1" route="route_ew_2" type="Car" /><flow begin="0" depart="1" end="3600" id="flow_we_2" probability="0.05" route="route_we_2" type="Car" /></routes>