<?xml version="1.0" encoding="UTF-8"?>

<!-- generated on Thu Aug 16 19:49:09 2018 by SUMO duarouter Version 0.32.0
<?xml version="1.0" encoding="UTF-8"?>

<configuration xmlns:xsi="http://www.w3.org/2001/XMLSchema-instance" xsi:noNamespaceSchemaLocation="http://sumo.dlr.de/xsd/duarouterConfiguration.xsd">

    <input>
        <net-file value="osm.net.xml"/>
        <route-files value="trips.trips.xml"/>
    </input>

    <output>
        <output-file value="04.rou.xml"/>
        <alternatives-output value="04.rou.alt.xml"/>
    </output>

    <processing>
        <ignore-errors value="true"/>
    </processing>

    <time>
        <begin value="0"/>
        <end value="3599.0"/>
    </time>

    <report>
        <no-warnings value="true"/>
        <no-step-log value="true"/>
    </report>

</configuration>
-->

<routes xmlns:xsi="http://www.w3.org/2001/XMLSchema-instance" xsi:noNamespaceSchemaLocation="http://sumo.dlr.de/xsd/routes_file.xsd">
    <vehicle id="0" depart="0.00">
        <route edges="294294299#6 62343617 -11962498#3 -11962498#2 -11962498#1 -11962498#0 26321030#2 -494284371#2 -494284371#1 -494284371#0"/>
    </vehicle>
    <vehicle id="1" depart="0.00">
        <route edges="294294299#0 323751621#0 -494284371#0"/>
    </vehicle>
    <vehicle id="2" depart="0.00">
        <route edges="-11947670 -294921218#1 -11828786#2 -11828786#1 -11828786#0 11828786#0"/>
    </vehicle>
    <vehicle id="3" depart="0.00">
        <route edges="11737884#0 11737884#2 11737884#3 11957936#0 11957936#2 62343617 -11962498#3 -11962498#2 26321021"/>
    </vehicle>
    <vehicle id="4" depart="1.00">
        <route edges="11737884#0 11737884#2 11737884#3 293149229#0 11834136 24850351#0 302256386 -302256388 -294921218#1 -11828786#2"/>
    </vehicle>
    <vehicle id="5" depart="1.00">
        <route edges="-331173871#1 -331173871#0 -11962498#3 -11962498#2 11830680#0 11830680#1 11830680#2 11830680#3 11834136 24850351#0 11808030 11839510#0 11839510#1 11839510#2 11957936#0"/>
    </vehicle>
    <vehicle id="6" depart="2.00">
        <route edges="294294299#0 -11747683#1 -11747683#0 11694981#0 11694981#1 11694981#2"/>
    </vehicle>
    <vehicle id="7" depart="2.00">
        <route edges="-302256386 -24850351#0 11684003#0 293149229#2 293149229#3 293149229#4 293149229#5 293149229#6 11747683#0 11747683#1 323751621#0 -494284371#0"/>
    </vehicle>
    <vehicle id="8" depart="2.00">
        <route edges="494284371#0 323751621#1"/>
    </vehicle>
    <vehicle id="9" depart="3.00">
        <route edges="-331173871#1 -331173871#0 -11962498#3 -11962498#2 -11962498#1 -11962498#0 26321030#2 -494284371#2 -494284371#1 -494284371#0"/>
    </vehicle>
    <vehicle id="10" depart="3.00">
        <route edges="11719980#0 -11719980#0 11737884#3 293149229#0 11834136 24850351#0 302256386 -302256388"/>
    </vehicle>
    <vehicle id="11" depart="3.00">
        <route edges="294294299#0 323751621#0 494284371#1 11833510#1 11833510#2"/>
    </vehicle>
    <vehicle id="12" depart="4.00">
        <route edges="11833510#0 494284371#2 494284371#3 494284371#4 11734345#2 11962498#1 11830680#0 11830680#1 11830680#2 11830680#3 11834136 24850351#0 11808030 -302256387"/>
    </vehicle>
    <vehicle id="13" depart="4.00">
        <route edges="11690285#1 294294299#4 294294299#5 11830680#2 11830680#3 11834136 24850351#0 11808030 11839510#0 11839510#1"/>
    </vehicle>
    <vehicle id="14" depart="4.00">
        <route edges="11833510#0 494284371#2 494284371#3 494284371#4 11734345#2 11962498#1 11830680#0 11830680#1 11830680#2"/>
    </vehicle>
    <vehicle id="15" depart="4.00">
        <route edges="11833510#0 -494284371#1 -323751621#0 -11747683#1 -11747683#0 11694981#0 11694981#1"/>
    </vehicle>
    <vehicle id="16" depart="5.00">
        <route edges="323751621#0 -323751621#0 -11747683#1"/>
    </vehicle>
    <vehicle id="17" depart="5.00">
        <route edges="302256386 -302256386 -24850351#0 11684003#0 293149229#2 293149229#3 293149229#4 11690285#0 11690285#1 294294299#4 294294299#5 294294299#6"/>
    </vehicle>
    <vehicle id="18" depart="5.00">
        <route edges="302256388 -302256386 11808030 11839510#0 11839510#1 11839510#2 11957936#0 11957936#2 62343617 331173871#0 331173871#1"/>
    </vehicle>
    <vehicle id="19" depart="6.00">
        <route edges="294294299#0 -11747683#1 -11747683#0 11694981#0 11694981#1 294921218#0 294921218#1 302256388 -302256386 11808030 -302256387"/>
    </vehicle>
    <vehicle id="20" depart="6.00">
        <route edges="11833510#0 494284371#2 494284371#3 494284371#4 11734345#2 11962498#1 11962498#2 11962498#3 -62343617 293149230"/>
    </vehicle>
    <vehicle id="21" depart="7.00">
        <route edges="11694981#0 -11694981#0 293149229#7 293149229#8 293149229#9"/>
    </vehicle>
    <vehicle id="22" depart="7.00">
        <route edges="-11962498#1 -11962498#0 26321030#2 -494284371#2 -494284371#1 494284371#1"/>
    </vehicle>
    <vehicle id="23" depart="7.00">
        <route edges="331173871#0 -331173871#0 -11962498#3 -11962498#2 26321021"/>
    </vehicle>
    <vehicle id="24" depart="8.00">
        <route edges="-11694981#2 294921218#0 294921218#1 302256388 -302256386 11808030 11839510#0 11839510#1 11839510#2 11957936#0 11957936#2 62343617"/>
    </vehicle>
    <vehicle id="27" depart="9.00">
        <route edges="11830680#0 11830680#1 11830680#2 11830680#3 11834136"/>
    </vehicle>
    <vehicle id="28" depart="10.00">
        <route edges="-11829415 -11694981#0 11747683#0 11747683#1 294294299#2 294294299#3 26321030#0 11962498#0"/>
    </vehicle>
    <vehicle id="29" depart="11.00">
        <route edges="11829415 -11829415 -11694981#0 11747683#0 11747683#1 323751621#0 494284371#1 494284371#2 494284371#3"/>
    </vehicle>
    <vehicle id="30" depart="11.00">
        <route edges="-494284371#2 -494284371#1 -323751621#0 -11747683#1 -11747683#0 293149229#7 293149229#8 293149229#9"/>
    </vehicle>
    <vehicle id="31" depart="11.00">
        <route edges="-11828786#2 11828786#2 294921218#1 302256388 -302256386 11808030 11839510#0 11839510#1 11839510#2 11957936#0 11957936#2 62343617 331173871#0 331173871#1"/>
    </vehicle>
    <vehicle id="32" depart="12.00">
        <route edges="302256387 -11808030 302256386 -302256388 -294921218#1 -11828786#2"/>
    </vehicle>
    <vehicle id="33" depart="12.00">
        <route edges="11833510#2 294294299#3 -11690285#1 -11690285#0 293149229#5 293149229#6 293149229#7 293149229#8 293149229#9"/>
    </vehicle>
    <vehicle id="34" depart="13.00">
        <route edges="494284371#0 -323751621#0 -11747683#1 -11747683#0 11694981#0 11694981#1 11694981#2"/>
    </vehicle>
    <vehicle id="35" depart="13.00">
        <route edges="-11947670 -294921218#1 -294921218#0 -11694981#1 -11694981#0 11747683#0 11747683#1 294294299#2 294294299#3"/>
    </vehicle>
    <vehicle id="36" depart="13.00">
        <route edges="-494284371#4 -494284371#3 -494284371#2 -494284371#1 -323751621#0 -11747683#1 -11747683#0 11694981#0 11694981#1 294921218#0 294921218#1 11947670"/>
    </vehicle>
    <vehicle id="37" depart="14.00">
        <route edges="-11947670 -294921218#1 -294921218#0 11694981#2"/>
    </vehicle>
    <vehicle id="38" depart="14.00">
        <route edges="302256387 -11808030 302256386 -302256388 -294921218#1 -294921218#0 11694981#2"/>
    </vehicle>
    <vehicle id="39" depart="14.00">
        <route edges="294294299#0 -11747683#1 -11747683#0 11694981#0 11694981#1 11694981#2"/>
    </vehicle>
    <vehicle id="40" depart="15.00">
        <route edges="11694981#1 -11694981#1 -11694981#0 11747683#0 11747683#1 323751621#0 323751621#1"/>
    </vehicle>
    <vehicle id="41" depart="16.00">
        <route edges="294294299#5 294294299#6 62343617 331173871#0 331173871#1"/>
    </vehicle>
    <vehicle id="42" depart="16.00">
        <route edges="494284371#1 -494284371#1 -323751621#0 -11747683#1 -11747683#0 11694981#0 11694981#1 294921218#0 294921218#1 -294921218#1"/>
    </vehicle>
    <vehicle id="43" depart="17.00">
        <route edges="-11947670 -294921218#1 -294921218#0 -11694981#1 -11694981#0 293149229#7 293149229#8 293149229#9"/>
    </vehicle>
    <vehicle id="44" depart="17.00">
        <route edges="494284371#0 -323751621#0 -11747683#1 -11747683#0 293149229#7 293149229#8 293149229#9"/>
    </vehicle>
    <vehicle id="45" depart="17.00">
        <route edges="494284371#0 494284371#1 494284371#2 26321030#3"/>
    </vehicle>
    <vehicle id="46" depart="17.00">
        <route edges="302256386 -302256386 -24850351#0 11684003#0 293149229#2 293149229#3 293149229#4 293149229#5 11828786#0 11828786#1"/>
    </vehicle>
    <vehicle id="47" depart="17.00">
        <route edges="294294299#6 62343617 -11962498#3 -11962498#2 11830680#0 11830680#1 11830680#2 11830680#3 293149229#1 293149229#2 293149229#3 293149229#4 11690285#0 -11690285#0"/>
    </vehicle>
    <vehicle id="48" depart="18.00">
        <route edges="494284371#0 -323751621#0 294294299#2 294294299#3 26321030#0 11962498#0"/>
    </vehicle>
    <vehicle id="49" depart="18.00">
        <route edges="-11694981#2 294921218#0 294921218#1 302256388 -302256386 11808030 11839510#0 11839510#1 11839510#2 11957936#0 11957936#2 62343617 331173871#0 331173871#1"/>
    </vehicle>
    <vehicle id="50" depart="18.00">
        <route edges="-11719980#0 11737884#3 293149229#0 293149229#1 293149229#2 293149229#3 293149229#4 293149229#5 11828786#0 -11828786#0"/>
    </vehicle>
    <vehicle id="51" depart="19.00">
        <route edges="11833510#0 494284371#2 494284371#3 494284371#4"/>
    </vehicle>
    <vehicle id="52" depart="19.00">
        <route edges="11830680#2 11830680#3 11834136 24850351#0 302256386 -302256388 -294921218#1"/>
    </vehicle>
    <vehicle id="54" depart="20.00">
        <route edges="-62343617 62343617 -11962498#3 -11962498#2 26321021"/>
    </vehicle>
    <vehicle id="55" depart="20.00">
        <route edges="62343617 -11962498#3 -11962498#2 -11962498#1 -11962498#0 26321030#2 -494284371#2 -494284371#1 323751621#1"/>
    </vehicle>
    <vehicle id="56" depart="20.00">
        <route edges="494284371#0 -494284371#0"/>
    </vehicle>
    <vehicle id="57" depart="21.00">
        <route edges="11962498#3 -11962498#3 -11962498#2 11830680#0 11830680#1"/>
    </vehicle>
    <vehicle id="58" depart="21.00">
        <route edges="24850351#0 302256386 -302256388 11947670"/>
    </vehicle>
    <vehicle id="59" depart="21.00">
        <route edges="-11829415 -11694981#0 11747683#0 11747683#1 294294299#2 294294299#3 26321030#0 11962498#0 11962498#1 11962498#2 11962498#3 331173871#0 331173871#1"/>
    </vehicle>
    <vehicle id="60" depart="22.00">
        <route edges="294294299#6 62343617 -11962498#3 -11962498#2 -11962498#1 11734345#3"/>
    </vehicle>
    <vehicle id="61" depart="22.00">
        <route edges="293149229#3 293149229#4 11690285#0 11690285#1 26321030#0 26321030#2 -494284371#2"/>
    </vehicle>
    <vehicle id="62" depart="23.00">
        <route edges="494284371#0 494284371#1 494284371#2 494284371#3 494284371#4 11734345#2 11962498#1 -11962498#1"/>
    </vehicle>
    <vehicle id="63" depart="23.00">
        <route edges="11957936#0 11957936#2 62343617 -11962498#3 -11962498#2 26321021"/>
    </vehicle>
    <vehicle id="64" depart="23.00">
        <route edges="11737884#0 11737884#2 11737884#3 293149229#0 293149229#1 293149229#2 293149229#3 293149229#4 293149229#5 293149229#6 293149229#7 293149229#8 293149229#9"/>
    </vehicle>
    <vehicle id="65" depart="24.00">
        <route edges="11737884#0 11737884#2 11737884#3 293149229#0 293149229#1 293149229#2 293149229#3 293149229#4 11690285#0 11690285#1 294294299#4 11734345#4 11734345#5"/>
    </vehicle>
    <vehicle id="66" depart="24.00">
        <route edges="302256387 -11808030 -24850351#0 11684003#0 293149229#2 293149229#3 293149229#4 293149229#5 293149229#6 11747683#0 11747683#1 323751621#0 494284371#1 494284371#2"/>
    </vehicle>
    <vehicle id="67" depart="24.00">
        <route edges="-11719980#0 11737884#3 293149229#0 293149229#1 293149229#2 293149229#3 293149229#4 293149229#5 293149229#6 293149229#7 293149229#8 293149229#9"/>
    </vehicle>
    <vehicle id="68" depart="25.00">
        <route edges="-24850351#0 11684003#0 293149229#2 293149229#3 293149229#4 293149229#5 293149229#6 293149229#7 293149229#8 293149229#9"/>
    </vehicle>
    <vehicle id="69" depart="25.00">
        <route edges="11734345#3 11734345#4 11734345#5 293149229#3 293149229#4 293149229#5 293149229#6 11694981#0 11694981#1 294921218#0 294921218#1 302256388"/>
    </vehicle>
    <vehicle id="70" depart="26.00">
        <route edges="494284371#0 494284371#1 494284371#2 494284371#3 494284371#4 11734345#2 11962498#1 11962498#2 11962498#3 -62343617 293149230"/>
    </vehicle>
    <vehicle id="71" depart="26.00">
        <route edges="-11828786#0 293149229#6 11694981#0 11694981#1 294921218#0"/>
    </vehicle>
    <vehicle id="72" depart="26.00">
        <route edges="-11694981#2 -11694981#1 -11694981#0 11747683#0 11747683#1"/>
    </vehicle>
    <vehicle id="73" depart="26.00">
        <route edges="11734345#0 -494284371#4 -494284371#3 -494284371#2 -494284371#1 -323751621#0 -11747683#1 -11747683#0 11694981#0 11694981#1 294921218#0 294921218#1 11947670"/>
    </vehicle>
    <vehicle id="75" depart="27.00">
        <route edges="11734345#0 -494284371#4 -494284371#3 -494284371#2 -494284371#1 -323751621#0"/>
    </vehicle>
    <vehicle id="76" depart="27.00">
        <route edges="-494284371#3 494284371#3 494284371#4 11734345#2 11962498#1 11962498#2"/>
    </vehicle>
    <vehicle id="77" depart="28.00">
        <route edges="11833510#0 494284371#2 494284371#3 494284371#4 11734345#2 11962498#1 11962498#2 11962498#3 -62343617 293149230"/>
    </vehicle>
    <vehicle id="78" depart="28.00">
        <route edges="-11690285#1 11690285#1 26321030#0 26321030#2 26321030#3"/>
    </vehicle>
    <vehicle id="79" depart="29.00">
        <route edges="11734345#4 11734345#5 293149229#3 293149229#4 293149229#5 293149229#6 11747683#0 11747683#1 323751621#0 -494284371#0"/>
    </vehicle>
    <vehicle id="80" depart="29.00">
        <route edges="294294299#4 294294299#5 294294299#6 62343617 -11962498#3 -11962498#2 26321021"/>
    </vehicle>
    <vehicle id="81" depart="30.00">
        <route edges="11737884#0 11737884#2 11737884#3 293149229#0 293149229#1 293149229#2 293149229#3 293149229#4 11690285#0 11690285#1 26321030#0 26321030#2 26321030#3"/>
    </vehicle>
    <vehicle id="82" depart="30.00">
        <route edges="293149229#1 293149229#2 293149229#3 293149229#4 293149229#5 293149229#6 11694981#0"/>
    </vehicle>
    <vehicle id="83" depart="30.00">
        <route edges="494284371#0 -323751621#0 -11747683#1 -11747683#0 11694981#0 11694981#1 294921218#0 294921218#1 11947670"/>
    </vehicle>
    <vehicle id="85" depart="31.00">
        <route edges="494284371#0 494284371#1 494284371#2 26321030#3"/>
    </vehicle>
    <vehicle id="86" depart="31.00">
        <route edges="11833510#0 -494284371#1 -323751621#0 -11747683#1 -11747683#0 293149229#7 293149229#8 293149229#9"/>
    </vehicle>
    <vehicle id="87" depart="32.00">
        <route edges="11734345#0 11734345#2 11962498#1 26321021"/>
    </vehicle>
    <vehicle id="88" depart="32.00">
        <route edges="-11694981#2 -11694981#1 -11694981#0 11747683#0 11747683#1 294294299#2 294294299#3 26321030#0 11962498#0 11962498#1"/>
    </vehicle>
    <vehicle id="89" depart="32.00">
        <route edges="294294299#5 11830680#2 11830680#3 293149229#1 293149229#2 293149229#3 293149229#4 293149229#5 293149229#6 11694981#0 11694981#1"/>
    </vehicle>
    <vehicle id="90" depart="32.00">
        <route edges="26321030#0 11962498#0 11962498#1 11830680#0 11830680#1 11830680#2 11830680#3 11834136 24850351#0 11808030 -302256387"/>
    </vehicle>
    <vehicle id="91" depart="33.00">
        <route edges="-11694981#2 294921218#0 294921218#1 302256388 -302256386 11808030 11839510#0 11839510#1 11839510#2 11957936#0 11957936#2 62343617 331173871#0 331173871#1"/>
    </vehicle>
    <vehicle id="92" depart="34.00">
        <route edges="494284371#4 -494284371#4 -494284371#3 -494284371#2 -494284371#1 -323751621#0 -11747683#1 -11747683#0 11694981#0 11694981#1 11694981#2"/>
    </vehicle>
    <vehicle id="93" depart="34.00">
        <route edges="11737884#0 11737884#2 11737884#3 293149229#0 293149229#1 293149229#2 293149229#3 293149229#4 293149229#5 293149229#6 11694981#0"/>
    </vehicle>
    <vehicle id="94" depart="34.00">
        <route edges="-11694981#0 11747683#0 11747683#1 294294299#2 294294299#3 26321030#0 11962498#0 11962498#1 26321021"/>
    </vehicle>
    <vehicle id="95" depart="35.00">
        <route edges="494284371#2 494284371#3 494284371#4 11734345#2 11962498#1 11830680#0 11830680#1 11830680#2 11830680#3 293149229#1 293149229#2"/>
    </vehicle>
    <vehicle id="96" depart="36.00">
        <route edges="-11694981#2 294921218#0 294921218#1 302256388 -302256386 11808030 11839510#0 11839510#1 11839510#2 11957936#0 11957936#2 62343617 -11962498#3 -11962498#2 11830680#0"/>
    </vehicle>
    <vehicle id="97" depart="36.00">
        <route edges="11734345#0 -494284371#4 -494284371#3 -494284371#2 11833510#1 11833510#2 294294299#3 26321030#0"/>
    </vehicle>
    <vehicle id="98" depart="36.00">
        <route edges="11734345#2 11962498#1 11962498#2 11962498#3 331173871#0 331173871#1"/>
    </vehicle>
    <vehicle id="99" depart="37.00">
        <route edges="-62343617 62343617 -11962498#3 -11962498#2 11830680#0 11830680#1 11830680#2 11830680#3 293149229#1 293149229#2 293149229#3 293149229#4 293149229#5 293149229#6 11747683#0 11747683#1"/>
    </vehicle>
    <vehicle id="100" depart="37.00">
        <route edges="11962498#3 331173871#0 331173871#1"/>
    </vehicle>
    <vehicle id="101" depart="37.00">
        <route edges="-11829415 -11694981#0 11747683#0 11747683#1 294294299#2 294294299#3 26321030#0 26321030#2"/>
    </vehicle>
    <vehicle id="102" depart="38.00">
        <route edges="11962498#1 11830680#0 11830680#1 11830680#2 11830680#3 293149229#1 293149229#2 293149229#3 293149229#4 293149229#5 293149229#6"/>
    </vehicle>
    <vehicle id="103" depart="38.00">
        <route edges="-11947670 -294921218#1 -294921218#0 -11694981#1 -11694981#0 11747683#0 11747683#1 323751621#0 494284371#1 494284371#2 494284371#3 -494284371#3"/>
    </vehicle>
    <vehicle id="104" depart="38.00">
        <route edges="-494284371#2 494284371#2 494284371#3 494284371#4 11734345#2 11962498#1 26321021"/>
    </vehicle>
    <vehicle id="105" depart="39.00">
        <route edges="331173871#0 -331173871#0 -11962498#3 -11962498#2 11830680#0 11830680#1 11830680#2 11830680#3 11834136 24850351#0 302256386 -302256388 -294921218#1 294921218#1"/>
    </vehicle>
    <vehicle id="106" depart="39.00">
        <route edges="-323751621#0 294294299#2 294294299#3 26321030#0 11962498#0 11962498#1 11962498#2 11962498#3 331173871#0 331173871#1"/>
    </vehicle>
    <vehicle id="107" depart="40.00">
        <route edges="-331173871#1 -331173871#0 -11962498#3 -11962498#2 -11962498#1 -11962498#0 26321030#2 494284371#3"/>
    </vehicle>
    <vehicle id="108" depart="40.00">
        <route edges="26321030#2 494284371#3 494284371#4 11734345#2 11962498#1 11830680#0 11830680#1 11830680#2 11830680#3 11834136 24850351#0 11808030 11839510#0 11839510#1 11839510#2 293149229#0"/>
    </vehicle>
    <vehicle id="109" depart="40.00">
        <route edges="11957936#0 11957936#2 62343617 -11962498#3 -11962498#2 11830680#0 11830680#1 11830680#2 11830680#3 293149229#1 293149229#2 293149229#3 293149229#4 293149229#5"/>
    </vehicle>
    <vehicle id="110" depart="41.00">
        <route edges="-24850351#0 24850351#0 11808030 11839510#0 11839510#1 11839510#2 11957936#0 11957936#2 62343617 331173871#0 331173871#1"/>
    </vehicle>
    <vehicle id="111" depart="41.00">
        <route edges="293149229#2 293149229#3 293149229#4 293149229#5 293149229#6 11747683#0 11747683#1 294294299#2"/>
    </vehicle>
    <vehicle id="112" depart="41.00">
        <route edges="331173871#0 331173871#1"/>
    </vehicle>
    <vehicle id="113" depart="41.00">
        <route edges="11830680#3 293149229#1 293149229#2 293149229#3 293149229#4 11690285#0 11690285#1 26321030#0 26321030#2 494284371#3"/>
    </vehicle>
    <vehicle id="114" depart="42.00">
        <route edges="11737884#0 11737884#2 11737884#3 293149229#0 11834136 24850351#0 11808030 -302256387"/>
    </vehicle>
    <vehicle id="115" depart="43.00">
        <route edges="11833510#0 494284371#2 494284371#3 494284371#4 11734345#2 11962498#1 26321021"/>
    </vehicle>
    <vehicle id="116" depart="43.00">
        <route edges="494284371#0 494284371#1 494284371#2 494284371#3 494284371#4 11734345#2 11962498#1 11962498#2 11962498#3 331173871#0 331173871#1"/>
    </vehicle>
    <vehicle id="117" depart="44.00">
        <route edges="-323751621#1 494284371#1 494284371#2 494284371#3 494284371#4 11734345#2 11962498#1 11962498#2 11962498#3 -62343617 293149230"/>
    </vehicle>
    <vehicle id="118" depart="44.00">
        <route edges="-11719980#1 -11719980#0 11737884#3 293149229#0 293149229#1 293149229#2 293149229#3 293149229#4 11690285#0 11690285#1 26321030#0 26321030#2 494284371#3 494284371#4 11734345#2"/>
    </vehicle>
    <vehicle id="119" depart="44.00">
        <route edges="494284371#2 -494284371#2 -494284371#1 323751621#1"/>
    </vehicle>
    <vehicle id="120" depart="44.00">
        <route edges="-302256386 11808030 11839510#0 11839510#1 11839510#2 11957936#0 11957936#2 62343617 -11962498#3 -11962498#2 11830680#0"/>
    </vehicle>
    <vehicle id="122" depart="45.00">
        <route edges="293149229#1 293149229#2 293149229#3 293149229#4 11690285#0 11690285#1 26321030#0 11962498#0 11962498#1 11962498#2 11962498#3 331173871#0 331173871#1"/>
    </vehicle>
    <vehicle id="123" depart="45.00">
        <route edges="494284371#0 494284371#1 494284371#2 494284371#3 494284371#4 11734345#2 11962498#1 11962498#2 11962498#3 -62343617"/>
    </vehicle>
    <vehicle id="124" depart="45.00">
        <route edges="302256387 11839510#0 11839510#1 11839510#2 11957936#0 11957936#2 293149230"/>
    </vehicle>
    <vehicle id="125" depart="46.00">
        <route edges="11734345#0 -494284371#4 -494284371#3 -494284371#2 11833510#1 11833510#2 294294299#3"/>
    </vehicle>
    <vehicle id="126" depart="46.00">
        <route edges="-11947670 302256388 -302256386 11808030 -302256387"/>
    </vehicle>
    <vehicle id="127" depart="46.00">
        <route edges="11808030 -11808030 302256386 -302256388 -294921218#1 -294921218#0 11694981#2"/>
    </vehicle>
    <vehicle id="129" depart="47.00">
        <route edges="11828786#2 294921218#1 302256388 -302256388"/>
    </vehicle>
    <vehicle id="130" depart="48.00">
        <route edges="494284371#0 494284371#1 494284371#2 -494284371#2"/>
    </vehicle>
    <vehicle id="131" depart="48.00">
        <route edges="26321030#2 -494284371#2 -494284371#1 323751621#1"/>
    </vehicle>
    <vehicle id="132" depart="49.00">
        <route edges="323751621#0 -323751621#0 -11747683#1 -11747683#0 11694981#0 11694981#1 11694981#2"/>
    </vehicle>
    <vehicle id="133" depart="49.00">
        <route edges="11734345#0 11734345#2 11962498#1 11962498#2 11962498#3 -11962498#3"/>
    </vehicle>
    <vehicle id="134" depart="50.00">
        <route edges="331173871#0 -331173871#0 -11962498#3 -11962498#2 -11962498#1 -11962498#0 26321030#2 -494284371#2 -494284371#1 -323751621#0"/>
    </vehicle>
    <vehicle id="135" depart="50.00">
        <route edges="11690285#1 26321030#0 26321030#2 26321030#3"/>
    </vehicle>
    <vehicle id="136" depart="50.00">
        <route edges="-11947670 302256388 -302256386 11808030 11839510#0 11839510#1 11839510#2 11957936#0 11957936#2 62343617 -11962498#3 -11962498#2 26321021"/>
    </vehicle>
    <vehicle id="137" depart="50.00">
        <route edges="294294299#0 -11747683#1 -11747683#0 11694981#0 11694981#1 294921218#0 294921218#1 302256388 -302256386 11808030 -302256387"/>
    </vehicle>
    <vehicle id="138" depart="51.00">
        <route edges="294294299#0 323751621#0 -494284371#0"/>
    </vehicle>
    <vehicle id="139" depart="51.00">
        <route edges="26321030#2 494284371#3 494284371#4 11734345#2 11734345#3 11734345#4 11734345#5 293149229#3"/>
    </vehicle>
    <vehicle id="140" depart="51.00">
        <route edges="294294299#0 294294299#2 294294299#3 26321030#0 11962498#0 11962498#1 11962498#2 11962498#3 331173871#0 331173871#1"/>
    </vehicle>
    <vehicle id="141" depart="52.00">
        <route edges="11737884#0 11737884#2 11737884#3 293149229#0 293149229#1 293149229#2 293149229#3 293149229#4 11690285#0 11690285#1 26321030#0 26321030#2 26321030#3"/>
    </vehicle>
    <vehicle id="142" depart="52.00">
        <route edges="-11828786#0 293149229#6 11694981#0 11694981#1 294921218#0 294921218#1 302256388 -302256386 11808030 11839510#0 11839510#1 11839510#2"/>
    </vehicle>
    <vehicle id="143" depart="53.00">
        <route edges="-11747683#1 11747683#1 294294299#2 294294299#3 26321030#0 11962498#0 11962498#1 11962498#2 11962498#3 331173871#0 331173871#1"/>
    </vehicle>
    <vehicle id="144" depart="53.00">
        <route edges="294294299#0 -11747683#1 -11747683#0 11694981#0 11694981#1 294921218#0 294921218#1 11947670"/>
    </vehicle>
    <vehicle id="145" depart="53.00">
        <route edges="-11962498#0 11962498#0 11962498#1 11962498#2 11962498#3 -62343617 293149230"/>
    </vehicle>
    <vehicle id="146" depart="53.00">
        <route edges="11734345#0 11734345#2 11734345#3 11734345#4 11734345#5"/>
    </vehicle>
    <vehicle id="147" depart="54.00">
        <route edges="-11947670 302256388 -302256386 11808030 11839510#0 11839510#1 11839510#2 11957936#0 11957936#2 293149230"/>
    </vehicle>
    <vehicle id="148" depart="54.00">
        <route edges="11737884#0 11737884#2 11737884#3 293149229#0 11834136 24850351#0 302256386 -302256388 11947670"/>
    </vehicle>
    <vehicle id="149" depart="54.00">
        <route edges="494284371#2 -494284371#2 -494284371#1 -323751621#0 -11747683#1 -11747683#0 11694981#0 11694981#1 294921218#0 294921218#1 11947670"/>
    </vehicle>
    <vehicle id="150" depart="55.00">
        <route edges="62343617 -11962498#3 -11962498#2 11830680#0 11830680#1 11830680#2 11830680#3 293149229#1 293149229#2 293149229#3 293149229#4 293149229#5 293149229#6 293149229#7 293149229#8 293149229#9"/>
    </vehicle>
    <vehicle id="151" depart="55.00">
        <route edges="294294299#0 294294299#2 294294299#3 26321030#0 11962498#0 -11962498#0"/>
    </vehicle>
    <vehicle id="152" depart="55.00">
        <route edges="-302256388 -294921218#1 -294921218#0 -11694981#1 -11694981#0 11747683#0 11747683#1 323751621#0 -494284371#0"/>
    </vehicle>
    <vehicle id="153" depart="56.00">
        <route edges="11737884#0 11737884#2 11737884#3 293149229#0 293149229#1 293149229#2 293149229#3 293149229#4 11690285#0 11690285#1 294294299#4 294294299#5"/>
    </vehicle>
    <vehicle id="154" depart="56.00">
        <route edges="11962498#0 11962498#1 26321021"/>
    </vehicle>
    <vehicle id="156" depart="57.00">
        <route edges="11833510#0 11833510#1 11833510#2 294294299#3 -11690285#1 -11690285#0 293149229#5 11828786#0 -11828786#0"/>
    </vehicle>
    <vehicle id="157" depart="58.00">
        <route edges="294294299#0 -11747683#1 -11747683#0 11694981#0 11694981#1 294921218#0 294921218#1 11947670"/>
    </vehicle>
    <vehicle id="158" depart="58.00">
        <route edges="11734345#0 11734345#2 11962498#1 11962498#2 11962498#3 331173871#0 331173871#1"/>
    </vehicle>
    <vehicle id="159" depart="58.00">
        <route edges="11734345#0 -494284371#4 -494284371#3 -494284371#2 -494284371#1 -494284371#0"/>
    </vehicle>
    <vehicle id="160" depart="58.00">
        <route edges="294294299#0 -11747683#1 -11747683#0 293149229#7 293149229#8 293149229#9"/>
    </vehicle>
    <vehicle id="162" depart="59.00">
        <route edges="11833510#2 294294299#3 294294299#4 294294299#5 294294299#6 293149230"/>
    </vehicle>
    <vehicle id="163" depart="59.00">
        <route edges="-11694981#2 294921218#0 294921218#1 302256388 -302256386 11808030 11839510#0 11839510#1 11839510#2 11957936#0 11957936#2 62343617 331173871#0 331173871#1"/>
    </vehicle>
    <vehicle id="164" depart="59.00">
        <route edges="494284371#3 494284371#4 11734345#2 11962498#1 11830680#0 11830680#1 11830680#2 11830680#3"/>
    </vehicle>
    <vehicle id="165" depart="60.00">
        <route edges="302256387 11839510#0 11839510#1 11839510#2 11957936#0 11957936#2 62343617 -11962498#3 -11962498#2 26321021"/>
    </vehicle>
    <vehicle id="166" depart="60.00">
        <route edges="494284371#0 494284371#1 494284371#2 -494284371#2"/>
    </vehicle>
    <vehicle id="167" depart="60.00">
        <route edges="494284371#0 494284371#1 494284371#2 494284371#3 494284371#4 11734345#2 11962498#1 11962498#2 11962498#3 -62343617 293149230"/>
    </vehicle>
    <vehicle id="168" depart="60.00">
        <route edges="-323751621#1 494284371#1 494284371#2 494284371#3 494284371#4 11734345#2 -11962498#0"/>
    </vehicle>
    <vehicle id="169" depart="61.00">
        <route edges="11737884#0 11737884#2 11737884#3 293149229#0 293149229#1 293149229#2 293149229#3 293149229#4 293149229#5 293149229#6 11747683#0 11747683#1 323751621#0 323751621#1"/>
    </vehicle>
    <vehicle id="170" depart="61.00">