<?xml version="1.0" encoding="UTF-8"?>

<!-- generated on Thu Aug 16 19:50:34 2018 by SUMO duarouter Version 0.32.0
<?xml version="1.0" encoding="UTF-8"?>

<configuration xmlns:xsi="http://www.w3.org/2001/XMLSchema-instance" xsi:noNamespaceSchemaLocation="http://sumo.dlr.de/xsd/duarouterConfiguration.xsd">

    <input>
        <net-file value="osm.net.xml"/>
        <route-files value="trips.trips.xml"/>
    </input>

    <output>
        <output-file value="12.rou.xml"/>
        <alternatives-output value="12.rou.alt.xml"/>
    </output>

    <processing>
        <ignore-errors value="true"/>
    </processing>

    <time>
        <begin value="0"/>
        <end value="3599.0"/>
    </time>

    <report>
        <no-warnings value="true"/>
        <no-step-log value="true"/>
    </report>

</configuration>
-->

<routes xmlns:xsi="http://www.w3.org/2001/XMLSchema-instance" xsi:noNamespaceSchemaLocation="http://sumo.dlr.de/xsd/routes_file.xsd">
    <vehicle id="0" depart="6.00">
        <route edges="294294299#0 294294299#2 294294299#3 26321030#0 11962498#0 11962498#1 11962498#2 -11962498#2"/>
    </vehicle>
    <vehicle id="1" depart="23.00">
        <route edges="-11947670 302256388 -302256386 11808030 11839510#0 11839510#1 11839510#2 11957936#0 11957936#2 62343617 -11962498#3 -11962498#2 26321021"/>
    </vehicle>
    <vehicle id="2" depart="27.00">
        <route edges="11737884#0 11737884#2 11737884#3 293149229#0 293149229#1 293149229#2 293149229#3"/>
    </vehicle>
    <vehicle id="4" depart="78.00">
        <route edges="302256386 -302256386 -24850351#0 11684003#0 293149229#2 293149229#3 293149229#4 11690285#0 11690285#1 26321030#0 26321030#2 26321030#3"/>
    </vehicle>
    <vehicle id="5" depart="82.00">
        <route edges="11737884#0 11737884#2 11737884#3 293149229#0 11834136 24850351#0 302256386 -302256388 302256388"/>
    </vehicle>
    <vehicle id="6" depart="92.00">
        <route edges="11734345#0 11734345#2 11734345#3 11734345#4 11734345#5"/>
    </vehicle>
    <vehicle id="8" depart="102.00">
        <route edges="11737884#0 11737884#2 11737884#3 293149229#0 11834136 24850351#0 302256386 -302256388 -294921218#1 -294921218#0"/>
    </vehicle>
    <vehicle id="9" depart="109.00">
        <route edges="-11694981#2 294921218#0 294921218#1 302256388 -302256386 11808030 11839510#0 11839510#1 11839510#2"/>
    </vehicle>
    <vehicle id="10" depart="111.00">
        <route edges="11737884#3 293149229#0 293149229#1 293149229#2 293149229#3 293149229#4 293149229#5 11828786#0"/>
    </vehicle>
    <vehicle id="11" depart="129.00">
        <route edges="-331173871#1 -331173871#0 -11962498#3 -11962498#2 11830680#0 11830680#1 11830680#2 11830680#3 293149229#1 293149229#2 293149229#3 293149229#4 293149229#5 293149229#6 11694981#0 11694981#1 11694981#2"/>
    </vehicle>
    <vehicle id="12" depart="137.00">
        <route edges="-323751621#1 -323751621#0 -11747683#1 -11747683#0 11694981#0 11694981#1 294921218#0 294921218#1 302256388 -302256386 11808030 11839510#0 11839510#1 11839510#2 293149229#0"/>
    </vehicle>
    <vehicle id="13" depart="146.00">
        <route edges="11734345#0 11734345#2 11962498#1 11962498#2 11962498#3 -62343617 293149230"/>
    </vehicle>
    <vehicle id="14" depart="147.00">
        <route edges="-323751621#1 -323751621#0 -11747683#1 -11747683#0 293149229#7 293149229#8 293149229#9"/>
    </vehicle>
    <vehicle id="15" depart="163.00">
        <route edges="-323751621#1 -323751621#0 -11747683#1 -11747683#0 11694981#0 11829415 11828786#2"/>
    </vehicle>
    <vehicle id="16" depart="171.00">
        <route edges="-11947670 302256388 -302256386 -24850351#0 11684003#0 293149229#2 293149229#3 293149229#4 11690285#0 11690285#1 294294299#4 294294299#5 11830680#2 11830680#3"/>
    </vehicle>
    <vehicle id="17" depart="179.00">
        <route edges="294294299#5 294294299#6 62343617 -11962498#3 -11962498#2 11830680#0"/>
    </vehicle>
    <vehicle id="18" depart="181.00">
        <route edges="494284371#2 -494284371#2 -494284371#1 323751621#1"/>
    </vehicle>
    <vehicle id="19" depart="186.00">
        <route edges="11734345#0 11734345#2 11962498#1 11830680#0 11830680#1 11830680#2 11830680#3 11834136 24850351#0 302256386 -302256386"/>
    </vehicle>
    <vehicle id="20" depart="190.00">
        <route edges="11734345#0 11734345#2 11734345#3 11734345#4 11734345#5 293149229#3 293149229#4 11690285#0 -11690285#0"/>
    </vehicle>
    <vehicle id="22" depart="221.00">
        <route edges="11833510#0 494284371#2 494284371#3 494284371#4 11734345#2 11962498#1 11830680#0 11830680#1 11830680#2 11830680#3 11834136 24850351#0 302256386"/>
    </vehicle>
    <vehicle id="24" depart="242.00">
        <route edges="293149229#4 293149229#5 293149229#6 293149229#7 293149229#8 293149229#9"/>
    </vehicle>
    <vehicle id="25" depart="264.00">
        <route edges="494284371#2"/>
    </vehicle>
    <vehicle id="26" depart="298.00">
        <route edges="24850351#0 -24850351#0 11684003#0 293149229#2 293149229#3 293149229#4 293149229#5 293149229#6"/>
    </vehicle>
    <vehicle id="27" depart="306.00">
        <route edges="293149229#3 293149229#4 293149229#5 293149229#6 11694981#0 11694981#1 11694981#2"/>
    </vehicle>
    <vehicle id="28" depart="309.00">
        <route edges="11734345#0 -494284371#4 -494284371#3 26321030#3"/>
    </vehicle>
    <vehicle id="29" depart="310.00">
        <route edges="11833510#0 494284371#2 494284371#3 494284371#4 11734345#2 11962498#1 26321021"/>
    </vehicle>
    <vehicle id="30" depart="330.00">
        <route edges="-11694981#2 294921218#0 294921218#1 302256388 -302256386 11808030 11839510#0 11839510#1 11839510#2 11957936#0 11957936#2 62343617 331173871#0 331173871#1"/>
    </vehicle>
    <vehicle id="31" depart="339.00">
        <route edges="11737884#2 11737884#3 293149229#0 293149229#1 293149229#2"/>
    </vehicle>
    <vehicle id="32" depart="345.00">
        <route edges="494284371#0 494284371#1 494284371#2 494284371#3 494284371#4 11734345#2 11962498#1 -11962498#1"/>
    </vehicle>
    <vehicle id="34" depart="388.00">
        <route edges="494284371#0 494284371#1 494284371#2 494284371#3 494284371#4 11734345#2 11962498#1 26321021"/>
    </vehicle>
    <vehicle id="35" depart="390.00">
        <route edges="293149229#3 293149229#4 293149229#5 293149229#6 11694981#0 11694981#1 294921218#0 294921218#1 302256388 -302256386 11808030 -302256387"/>
    </vehicle>
    <vehicle id="36" depart="412.00">
        <route edges="11828786#1 11828786#2 294921218#1 302256388 -302256386 11808030 -302256387"/>
    </vehicle>
    <vehicle id="37" depart="439.00">
        <route edges="11962498#2 -11962498#2 -11962498#1 -11962498#0 26321030#2 494284371#3 494284371#4 -494284371#4"/>
    </vehicle>
    <vehicle id="38" depart="439.00">
        <route edges="11734345#5 293149229#3 293149229#4 11690285#0 11690285#1 294294299#4"/>
    </vehicle>
    <vehicle id="39" depart="441.00">
        <route edges="302256387 -11808030 -24850351#0 11684003#0 293149229#2 293149229#3 293149229#4 293149229#5 11828786#0 11828786#1 -11828786#1"/>
    </vehicle>
    <vehicle id="40" depart="443.00">
        <route edges="294921218#0 294921218#1 302256388 -302256386 11808030 11839510#0 11839510#1 11839510#2 11957936#0 11957936#2 62343617 331173871#0 331173871#1"/>
    </vehicle>
    <vehicle id="42" depart="461.00">
        <route edges="-11694981#2 -11694981#1 -11694981#0 11747683#0 11747683#1 323751621#0 -494284371#0"/>
    </vehicle>
    <vehicle id="43" depart="473.00">
        <route edges="294294299#4 11734345#4 11734345#5 293149229#3 293149229#4 293149229#5 293149229#6 11747683#0 11747683#1 323751621#0 323751621#1"/>
    </vehicle>
    <vehicle id="44" depart="485.00">
        <route edges="-323751621#1 -494284371#0"/>
    </vehicle>
    <vehicle id="45" depart="501.00">
        <route edges="11839510#1 11839510#2 293149229#0 293149229#1 293149229#2 293149229#3 293149229#4 293149229#5 293149229#6 11747683#0 11747683#1 323751621#0 494284371#1 494284371#2"/>
    </vehicle>
    <vehicle id="46" depart="509.00">
        <route edges="-11694981#2 -11694981#1 11829415 -11829415"/>
    </vehicle>
    <vehicle id="47" depart="532.00">
        <route edges="11694981#0 -11694981#0 11747683#0 11747683#1 294294299#2 294294299#3 26321030#0 11962498#0"/>
    </vehicle>
    <vehicle id="49" depart="581.00">
        <route edges="-331173871#1 -331173871#0 -11962498#3 -11962498#2 11830680#0 11830680#1 11830680#2 11830680#3 11834136 24850351#0 11808030 -302256387"/>
    </vehicle>
    <vehicle id="50" depart="600.00">
        <route edges="-11694981#2 -11694981#1 -11694981#0 11747683#0 11747683#1 323751621#0 -494284371#0"/>
    </vehicle>
    <vehicle id="51" depart="609.00">
        <route edges="11737884#0 11737884#2 11737884#3 293149229#0 11834136 24850351#0 302256386 -302256388 -294921218#1"/>
    </vehicle>
    <vehicle id="52" depart="623.00">
        <route edges="-11694981#2 294921218#0 294921218#1 302256388 -302256386 11808030 11839510#0 11839510#1 11839510#2 11957936#0 11957936#2 62343617 -11962498#3 -11962498#2 26321021"/>
    </vehicle>
    <vehicle id="54" depart="633.00">
        <route edges="11734345#4 11734345#5 293149229#3 293149229#4 293149229#5 293149229#6 11694981#0 11694981#1 294921218#0 294921218#1 11947670"/>
    </vehicle>
    <vehicle id="55" depart="662.00">
        <route edges="294294299#0 323751621#0 494284371#1 494284371#2 26321030#3"/>
    </vehicle>
    <vehicle id="56" depart="675.00">
        <route edges="494284371#0 494284371#1 494284371#2 494284371#3 494284371#4 11734345#2 11962498#1 11962498#2 -11962498#2"/>
    </vehicle>
    <vehicle id="57" depart="681.00">
        <route edges="11734345#2 11734345#3 11734345#4 11734345#5 293149229#3 293149229#4 293149229#5 293149229#6 11694981#0 11694981#1 11694981#2"/>
    </vehicle>
    <vehicle id="58" depart="694.00">
        <route edges="-11947670 11947670"/>
    </vehicle>
    <vehicle id="59" depart="711.00">
        <route edges="11694981#1 -11694981#1 -11694981#0 11747683#0 11747683#1 323751621#0 494284371#1 494284371#2 26321030#3"/>
    </vehicle>
    <vehicle id="60" depart="720.00">
        <route edges="11684003#0 293149229#2 293149229#3 293149229#4 293149229#5 293149229#6 11694981#0 11694981#1 294921218#0 294921218#1 11947670"/>
    </vehicle>
    <vehicle id="61" depart="726.00">
        <route edges="-11747683#0 11747683#0 11747683#1 294294299#2 294294299#3 294294299#4 294294299#5 294294299#6 293149230"/>
    </vehicle>
    <vehicle id="62" depart="727.00">
        <route edges="-11694981#2 294921218#0 294921218#1 302256388 -302256386 -24850351#0 24850351#0"/>
    </vehicle>
    <vehicle id="63" depart="727.00">
        <route edges="294294299#0 323751621#0 494284371#1 494284371#2 494284371#3 -494284371#3"/>
    </vehicle>
    <vehicle id="64" depart="732.00">
        <route edges="-11694981#2 294921218#0 294921218#1 302256388 -302256386 11808030 11839510#0 11839510#1 11839510#2 11957936#0 11957936#2 293149230"/>
    </vehicle>
    <vehicle id="65" depart="733.00">
        <route edges="294921218#0 294921218#1 11947670"/>
    </vehicle>
    <vehicle id="66" depart="737.00">
        <route edges="11734345#0 -494284371#4 -494284371#3 -494284371#2 -494284371#1 323751621#1"/>
    </vehicle>
    <vehicle id="67" depart="739.00">
        <route edges="-323751621#1 494284371#1 494284371#2 494284371#3 494284371#4 11734345#2 11962498#1 11830680#0"/>
    </vehicle>
    <vehicle id="69" depart="758.00">
        <route edges="-11828786#1 -11828786#0 293149229#6 293149229#7 293149229#8 293149229#9"/>
    </vehicle>
    <vehicle id="70" depart="776.00">
        <route edges="11808030 11839510#0 11839510#1 11839510#2 11957936#0 11957936#2 62343617 -11962498#3 -11962498#2 11962498#2"/>
    </vehicle>
    <vehicle id="71" depart="811.00">
        <route edges="-331173871#1 -331173871#0 -11962498#3 -11962498#2 -11962498#1 -11962498#0 26321030#2 -494284371#2 -494284371#1 323751621#1"/>
    </vehicle>
    <vehicle id="72" depart="813.00">
        <route edges="-11828786#2 11828786#2 294921218#1 302256388 -302256386 11808030 11839510#0 11839510#1 11839510#2 11957936#0 11957936#2 62343617"/>
    </vehicle>
    <vehicle id="73" depart="830.00">
        <route edges="294294299#0 -11747683#1 -11747683#0 11694981#0 -11694981#0"/>
    </vehicle>
    <vehicle id="75" depart="855.00">
        <route edges="302256388 -302256386 -24850351#0 11684003#0 293149229#2 293149229#3 293149229#4 293149229#5 293149229#6 11747683#0 11747683#1 294294299#2 294294299#3"/>
    </vehicle>
    <vehicle id="76" depart="868.00">
        <route edges="11737884#0 11737884#2 11737884#3 293149229#0 293149229#1 293149229#2 293149229#3 293149229#4 11690285#0 11690285#1 26321030#0"/>
    </vehicle>
    <vehicle id="77" depart="873.00">
        <route edges="-11947670 302256388 -302256386 11808030 -302256387"/>
    </vehicle>
    <vehicle id="78" depart="886.00">
        <route edges="-11947670 -294921218#1 -294921218#0 -11694981#1 -11694981#0 11747683#0 11747683#1 323751621#0 323751621#1"/>
    </vehicle>
    <vehicle id="79" depart="914.00">
        <route edges="11737884#0 11737884#2 11737884#3 293149229#0 293149229#1 293149229#2 293149229#3 293149229#4 293149229#5 293149229#6 11747683#0 11747683#1 323751621#0 494284371#1 494284371#2"/>
    </vehicle>
    <vehicle id="80" depart="942.00">
        <route edges="11737884#0 11737884#2 11737884#3 11957936#0 11957936#2 62343617 -11962498#3 -11962498#2 11830680#0 11830680#1 294294299#6"/>
    </vehicle>
    <vehicle id="81" depart="945.00">
        <route edges="-11694981#1 -11694981#0 11747683#0 11747683#1 294294299#2 294294299#3 294294299#4 294294299#5 294294299#6"/>
    </vehicle>
    <vehicle id="82" depart="965.00">
        <route edges="-331173871#1 -331173871#0 -11962498#3 -11962498#2 11962498#2"/>
    </vehicle>
    <vehicle id="83" depart="965.00">
        <route edges="11734345#0 -494284371#4 -494284371#3 -494284371#2 -494284371#1 -323751621#0 -11747683#1 -11747683#0 11694981#0 11694981#1 11694981#2"/>
    </vehicle>
    <vehicle id="84" depart="971.00">
        <route edges="494284371#0 -323751621#0 -11747683#1 -11747683#0 11694981#0 11694981#1 294921218#0 294921218#1 11947670"/>
    </vehicle>
    <vehicle id="85" depart="972.00">
        <route edges="302256386 -302256386 11808030 -302256387"/>
    </vehicle>
    <vehicle id="86" depart="976.00">
        <route edges="11734345#0 11734345#2 11962498#1 11830680#0 11830680#1 11830680#2 11830680#3 11834136 24850351#0 11808030 11839510#0 11839510#1 11839510#2 11957936#0"/>
    </vehicle>
    <vehicle id="87" depart="982.00">
        <route edges="-302256388 302256388 -302256386 11808030 11839510#0 11839510#1 11839510#2 11957936#0 11957936#2 62343617 331173871#0"/>
    </vehicle>
    <vehicle id="88" depart="1057.00">
        <route edges="294294299#0 -11747683#1 -11747683#0 11694981#0 11694981#1 294921218#0 294921218#1 302256388 -302256386 11808030 11839510#0 11839510#1 11839510#2 11957936#0"/>
    </vehicle>
    <vehicle id="89" depart="1121.00">
        <route edges="11830680#1 294294299#6 62343617 -11962498#3"/>
    </vehicle>
    <vehicle id="90" depart="1126.00">
        <route edges="-11947670 302256388 -302256386 11808030 -302256387"/>
    </vehicle>
    <vehicle id="91" depart="1165.00">
        <route edges="293149229#1 293149229#2 293149229#3 293149229#4 293149229#5 11828786#0 -11828786#0"/>
    </vehicle>
    <vehicle id="92" depart="1169.00">
        <route edges="11957936#2 62343617 -11962498#3 -11962498#2 11830680#0 11830680#1 11830680#2 11830680#3 293149229#1 293149229#2 293149229#3 293149229#4 293149229#5 293149229#6 11694981#0 11694981#1 11694981#2"/>
    </vehicle>
    <vehicle id="93" depart="1194.00">
        <route edges="294294299#3 294294299#4 294294299#5 294294299#6 293149230"/>
    </vehicle>
    <vehicle id="94" depart="1204.00">
        <route edges="-11719980#0 11737884#3 293149229#0 11834136 24850351#0 11808030 -302256387"/>
    </vehicle>
    <vehicle id="95" depart="1269.00">
        <route edges="-494284371#2 494284371#2 494284371#3 494284371#4 11734345#2 11962498#1 11830680#0 11830680#1 11830680#2 11830680#3 11834136 24850351#0 302256386"/>
    </vehicle>
    <vehicle id="96" depart="1284.00">
        <route edges="494284371#0 -323751621#0 -11747683#1 -11747683#0 11694981#0 11694981#1 294921218#0 294921218#1 302256388 -302256386 11808030 11839510#0 11839510#1 11839510#2 11957936#0"/>
    </vehicle>
    <vehicle id="97" depart="1292.00">
        <route edges="494284371#0 -323751621#0 -11747683#1 -11747683#0 11694981#0 11829415 -11828786#1 -11828786#0"/>
    </vehicle>
    <vehicle id="100" depart="1384.00">
        <route edges="-11947670 302256388 -302256386 11808030 11839510#0 11839510#1 11839510#2 11957936#0 11957936#2 62343617 -11962498#3 -11962498#2 11962498#2"/>
    </vehicle>
    <vehicle id="101" depart="1390.00">
        <route edges="494284371#0 494284371#1 494284371#2 494284371#3 494284371#4 11734345#2 11734345#3"/>
    </vehicle>
    <vehicle id="102" depart="1403.00">
        <route edges="293149229#0 293149229#1 293149229#2 293149229#3 293149229#4 293149229#5 293149229#6 11747683#0 11747683#1 323751621#0 -494284371#0"/>
    </vehicle>
    <vehicle id="103" depart="1417.00">
        <route edges="-11694981#2 -11694981#1 11829415 -11828786#1"/>
    </vehicle>
    <vehicle id="104" depart="1424.00">
        <route edges="494284371#3 -494284371#3 -494284371#2 -494284371#1 -323751621#0 -11747683#1 -11747683#0 11694981#0 11694981#1 -11694981#1"/>
    </vehicle>
    <vehicle id="105" depart="1426.00">
        <route edges="-11947670 302256388 -302256386 11808030 11839510#0 11839510#1 11839510#2"/>
    </vehicle>
    <vehicle id="106" depart="1433.00">
        <route edges="11684003#0 293149229#2 293149229#3 293149229#4 11690285#0 11690285#1 294294299#4 294294299#5 294294299#6 293149230"/>
    </vehicle>
    <vehicle id="107" depart="1435.00">
        <route edges="11734345#0 11734345#2 11962498#1 11830680#0 11830680#1 11830680#2 11830680#3 11834136 24850351#0 11808030 -302256387"/>
    </vehicle>
    <vehicle id="108" depart="1444.00">
        <route edges="-331173871#1 -331173871#0 -11962498#3 -11962498#2 -11962498#1 -11962498#0 26321030#2 26321030#3"/>
    </vehicle>
    <vehicle id="109" depart="1444.00">
        <route edges="11957936#0 11957936#2 62343617 -11962498#3 -11962498#2 11830680#0 11830680#1 11830680#2 11830680#3 293149229#1 293149229#2 293149229#3 293149229#4 293149229#5 293149229#6 11694981#0 11694981#1 11694981#2"/>
    </vehicle>
    <vehicle id="110" depart="1446.00">
        <route edges="302256387 11839510#0"/>
    </vehicle>
    <vehicle id="111" depart="1449.00">
        <route edges="-11694981#1 -11694981#0 11747683#0 11747683#1 323751621#0 494284371#1 494284371#2 26321030#3"/>
    </vehicle>
    <vehicle id="112" depart="1465.00">
        <route edges="11737884#0 11737884#2 11737884#3 11957936#0 11957936#2 62343617 -11962498#3 -11962498#2 26321021"/>
    </vehicle>
    <vehicle id="113" depart="1485.00">
        <route edges="11734345#0 -494284371#4 -494284371#3 -494284371#2 -494284371#1 -323751621#0 -11747683#1 -11747683#0 11694981#0 11694981#1 294921218#0 -294921218#0"/>
    </vehicle>
    <vehicle id="114" depart="1492.00">
        <route edges="293149229#3 293149229#4 11690285#0 11690285#1 294294299#4 294294299#5 11830680#2 11830680#3 11834136"/>
    </vehicle>
    <vehicle id="115" depart="1518.00">
        <route edges="11737884#0 11737884#2 11737884#3 293149229#0 11834136 24850351#0 11808030 -302256387"/>
    </vehicle>
    <vehicle id="116" depart="1520.00">
        <route edges="-11947670 302256388 -302256386 11808030 11839510#0 11839510#1 11839510#2 11957936#0 11957936#2 293149230"/>
    </vehicle>
    <vehicle id="117" depart="1545.00">
        <route edges="-11947670 302256388 -302256386 11808030 11839510#0 11839510#1 11839510#2 11957936#0 11957936#2 62343617 -11962498#3 -11962498#2 26321021"/>
    </vehicle>
    <vehicle id="118" depart="1565.00">
        <route edges="-323751621#0 -11747683#1 -11747683#0 11694981#0 11694981#1 294921218#0 294921218#1 11947670"/>
    </vehicle>
    <vehicle id="119" depart="1583.00">
        <route edges="494284371#0 323751621#1"/>
    </vehicle>
    <vehicle id="120" depart="1589.00">
        <route edges="11839510#2 293149229#0 293149229#1 293149229#2 293149229#3 293149229#4 11690285#0 11690285#1 26321030#0 26321030#2 494284371#3"/>
    </vehicle>
    <vehicle id="121" depart="1625.00">
        <route edges="-331173871#1 -331173871#0 -11962498#3 -11962498#2 -11962498#1 11734345#3 11734345#4 11734345#5"/>
    </vehicle>
    <vehicle id="122" depart="1631.00">
        <route edges="11833510#0 494284371#2 494284371#3 494284371#4 11734345#2 11962498#1 11830680#0 11830680#1 11830680#2"/>
    </vehicle>
    <vehicle id="123" depart="1639.00">
        <route edges="-11962498#2 11830680#0 11830680#1"/>
    </vehicle>
    <vehicle id="124" depart="1642.00">
        <route edges="-11947670 -294921218#1 -294921218#0 -11694981#1 -11694981#0 11747683#0 11747683#1 323751621#0 494284371#1 494284371#2 26321030#3"/>
    </vehicle>
    <vehicle id="125" depart="1667.00">
        <route edges="302256387 -11808030 302256386 -302256388 -294921218#1 294921218#1"/>
    </vehicle>
    <vehicle id="126" depart="1691.00">
        <route edges="-323751621#1 -494284371#0"/>
    </vehicle>
    <vehicle id="127" depart="1710.00">
        <route edges="11737884#0 11737884#2 11737884#3 11957936#0 11957936#2 62343617 -11962498#3 -11962498#2 26321021"/>
    </vehicle>
    <vehicle id="128" depart="1710.00">
        <route edges="-323751621#0 -11747683#1 -11747683#0 11694981#0 11694981#1 11694981#2"/>
    </vehicle>
    <vehicle id="129" depart="1733.00">
        <route edges="-11694981#2 -11694981#1 11829415 -11828786#1 11828786#1"/>
    </vehicle>
    <vehicle id="130" depart="1737.00">
        <route edges="-11947670 302256388 -302256386 11808030 11839510#0 11839510#1 11839510#2 11957936#0 11957936#2 62343617 331173871#0 331173871#1"/>
    </vehicle>
    <vehicle id="131" depart="1775.00">
        <route edges="302256387 -11808030 -24850351#0 11684003#0 293149229#2 293149229#3 293149229#4 293149229#5 11828786#0 11828786#1 11828786#2"/>
    </vehicle>
    <vehicle id="132" depart="1781.00">
        <route edges="-11694981#2 294921218#0 294921218#1 302256388 -302256386 11808030 -302256387"/>
    </vehicle>
    <vehicle id="133" depart="1796.00">
        <route edges="11833510#1 11833510#2 294294299#3 294294299#4 294294299#5 11830680#2 11830680#3 11834136 24850351#0 11808030 -302256387"/>
    </vehicle>
    <vehicle id="134" depart="1798.00">
        <route edges="-11747683#0 11747683#0 11747683#1 294294299#2 294294299#3 294294299#4 294294299#5 294294299#6 293149230"/>
    </vehicle>
    <vehicle id="135" depart="1864.00">
        <route edges="-62343617 62343617 -11962498#3 -11962498#2 -11962498#1 -11962498#0 26321030#2 -494284371#2 -494284371#1 323751621#1"/>
    </vehicle>
    <vehicle id="136" depart="1876.00">
        <route edges="11962498#0 11962498#1 11830680#0 11830680#1 11830680#2 11830680#3 11834136"/>
    </vehicle>
    <vehicle id="138" depart="1941.00">
        <route edges="-331173871#1 -331173871#0 -11962498#3 -11962498#2 -11962498#1 -11962498#0 26321030#2 -494284371#2 -494284371#1"/>
    </vehicle>
    <vehicle id="140" depart="1952.00">
        <route edges="11747683#0 11747683#1 294294299#2 294294299#3 26321030#0 11962498#0 11962498#1 11962498#2 11962498#3 331173871#0 331173871#1"/>
    </vehicle>
    <vehicle id="141" depart="1984.00">
        <route edges="294294299#0 -11747683#1 -11747683#0 11694981#0 11694981#1 294921218#0 294921218#1 302256388 -302256386 11808030 11839510#0"/>
    </vehicle>
    <vehicle id="142" depart="1988.00">
        <route edges="293149229#1 293149229#2 293149229#3 293149229#4 293149229#5 11828786#0"/>
    </vehicle>
    <vehicle id="143" depart="2003.00">
        <route edges="323751621#0 494284371#1 494284371#2 494284371#3 494284371#4 11734345#2 11962498#1 11830680#0 11830680#1 11830680#2 11830680#3 11834136"/>
    </vehicle>
    <vehicle id="144" depart="2008.00">
        <route edges="11734345#0 11734345#2 11962498#1 11962498#2 11962498#3 331173871#0"/>
    </vehicle>
    <vehicle id="145" depart="2018.00">
        <route edges="-494284371#3 -494284371#2 -494284371#1 -323751621#0 -11747683#1 -11747683#0 11694981#0 11829415 11828786#2"/>
    </vehicle>
    <vehicle id="146" depart="2029.00">
        <route edges="-11808030 11808030 11839510#0 11839510#1 11839510#2 11957936#0 11957936#2 62343617 -11962498#3 -11962498#2 26321021"/>
    </vehicle>
    <vehicle id="147" depart="2029.00">
        <route edges="494284371#0 494284371#1 494284371#2 494284371#3 494284371#4 11734345#2 11962498#1 11962498#2 11962498#3 331173871#0 331173871#1"/>
    </vehicle>
    <vehicle id="148" depart="2031.00">
        <route edges="494284371#0 -323751621#0 -11747683#1 -11747683#0 11694981#0 11694981#1 294921218#0 294921218#1 302256388 -302256386 11808030 11839510#0 11839510#1 11839510#2 293149229#0"/>
    </vehicle>
    <vehicle id="150" depart="2053.00">
        <route edges="-11947670 -294921218#1 -294921218#0 -11694981#1 -11694981#0 11747683#0 11747683#1 323751621#0 323751621#1"/>
    </vehicle>
    <vehicle id="151" depart="2054.00">
        <route edges="26321030#2 -494284371#2 -494284371#1 -323751621#0 -11747683#1 -11747683#0 11694981#0 11694981#1 294921218#0 -294921218#0"/>
    </vehicle>
    <vehicle id="152" depart="2073.00">
        <route edges="11839510#0 11839510#1 11839510#2 11957936#0 11957936#2 62343617 -11962498#3 -11962498#2 26321021"/>
    </vehicle>
    <vehicle id="154" depart="2092.00">
        <route edges="11737884#0 11737884#2 11737884#3 293149229#0 293149229#1 293149229#2 293149229#3 293149229#4 293149229#5 293149229#6 11747683#0 11747683#1 323751621#0 -323751621#0"/>
    </vehicle>
    <vehicle id="155" depart="2120.00">
        <route edges="-323751621#1 494284371#1 494284371#2 494284371#3 494284371#4 11734345#2 11962498#1 26321021"/>
    </vehicle>
    <vehicle id="156" depart="2127.00">
        <route edges="-11747683#1 11747683#1 323751621#0 494284371#1"/>
    </vehicle>
    <vehicle id="157" depart="2136.00">
        <route edges="-323751621#1 494284371#1 494284371#2 494284371#3 494284371#4 11734345#2 11962498#1 11962498#2 11962498#3 -62343617 293149230"/>
    </vehicle>
    <vehicle id="158" depart="2142.00">
        <route edges="11719980#0 -11719980#0 11737884#3 293149229#0 293149229#1 293149229#2 293149229#3 293149229#4 293149229#5 293149229#6 11694981#0 11694981#1 11694981#2"/>
    </vehicle>
    <vehicle id="159" depart="2204.00">
        <route edges="11839510#1 11839510#2 293149229#0 293149229#1 293149229#2 293149229#3 293149229#4 293149229#5 293149229#6 11747683#0 11747683#1 323751621#0 -494284371#0"/>
    </vehicle>
    <vehicle id="161" depart="2219.00">
        <route edges="11833510#0 -494284371#1 -323751621#0 -11747683#1 -11747683#0 11694981#0 11694981#1 294921218#0 294921218#1 11947670"/>
    </vehicle>
    <vehicle id="162" depart="2242.00">
        <route edges="11962498#3 -11962498#3 -11962498#2 11830680#0 11830680#1 11830680#2 11830680#3"/>
    </vehicle>
    <vehicle id="163" depart="2254.00">
        <route edges="-24850351#0 11684003#0 293149229#2 293149229#3 293149229#4 11690285#0 11690285#1 294294299#4 294294299#5 11830680#2"/>
    </vehicle>
    <vehicle id="164" depart="2259.00">
        <route edges="26321030#2 494284371#3 494284371#4 11734345#2 11962498#1 11962498#2 11962498#3 331173871#0 331173871#1"/>
    </vehicle>
    <vehicle id="165" depart="2268.00">
        <route edges="331173871#0 -331173871#0 -11962498#3 -11962498#2 -11962498#1 -11962498#0 26321030#2 494284371#3"/>
    </vehicle>
    <vehicle id="166" depart="2271.00">
        <route edges="11957732#0 11957732#1 293149229#9"/>
    </vehicle>
    <vehicle id="167" depart="2274.00">
        <route edges="-62343617 62343617 -11962498#3 11962498#3"/>
    </vehicle>
    <vehicle id="168" depart="2275.00">
        <route edges="294294299#0 294294299#2 294294299#3 26321030#0 11962498#0 11962498#1 11962498#2"/>
    </vehicle>
    <vehicle id="169" depart="2283.00">
        <route edges="294294299#4 11734345#4 11734345#5 293149229#3 293149229#4 293149229#5 293149229#6 11694981#0 11694981#1 294921218#0 294921218#1 11947670"/>
    </vehicle>
    <vehicle id="170" depart="2300.00">
        <route edges="11737884#0 11737884#2 11737884#3 11957936#0 11957936#2 62343617 -11962498#3 -11962498#2"/>
    </vehicle>
    <vehicle id="171" depart="2303.00">
        <route edges="11957936#2 62343617 -11962498#3 -11962498#2 11830680#0 11830680#1 11830680#2 11830680#3 293149229#1 293149229#2 293149229#3 293149229#4 293149229#5 11828786#0 11828786#1 -11829415"/>
    </vehicle>
    <vehicle id="172" depart="2307.00">
        <route edges="-331173871#1 -331173871#0 -11962498#3 -11962498#2 -11962498#1 -11962498#0 26321030#2 26321030#3"/>
    </vehicle>
    <vehicle id="173" depart="2310.00">
        <route edges="-331173871#1 -331173871#0 -11962498#3 -11962498#2 11830680#0 11830680#1 11830680#2 11830680#3 11834136 11684003#0"/>
    </vehicle>
    <vehicle id="175" depart="2321.00">
        <route edges="-11694981#2 -11694981#1 11829415 -11829415"/>
    </vehicle>
    <vehicle id="176" depart="2324.00">
        <route edges="11684003#0 293149229#2 293149229#3 293149229#4 293149229#5 293149229#6 11747683#0 11747683#1 323751621#0 -494284371#0"/>
    </vehicle>
    <vehicle id="177" depart="2346.00">
        <route edges="-62343617 62343617 -11962498#3 -11962498#2 11830680#0 11830680#1 11830680#2 11830680#3 11834136 24850351#0 302256386 -302256388 11947670"/>
    </vehicle>
    <vehicle id="178" depart="2357.00">
        <route edges="11833510#0 -494284371#1 -323751621#0 -11747683#1 -11747683#0 11694981#0 11694981#1 294921218#0 294921218#1 11947670"/>
    </vehicle>