<?xml version="1.0" encoding="UTF-8"?>

<!-- generated on Wed Jun 27 13:26:53 2018 by SUMO polyconvert Version svn
<?xml version="1.0" encoding="UTF-8"?>

<configuration xmlns:xsi="http://www.w3.org/2001/XMLSchema-instance" xsi:noNamespaceSchemaLocation="http://sumo.dlr.de/xsd/polyconvertConfiguration.xsd">

    <input>
        <net-file value="/home/rusheng/2018-06-27-13-26-51/osm.net.xml"/>
        <osm-files value="osm_bbox.osm.xml"/>
        <osm.keep-full-type value="true"/>
        <type-file value="/home/rusheng/pysumo/sumo/sumo/data/typemap/osmPolyconvert.typ.xml"/>
    </input>

    <output>
        <output-file value="/home/rusheng/2018-06-27-13-26-51/osm.poly.xml"/>
    </output>

    <processing>
        <poi-layer-offset value="5"/>
    </processing>

    <report>
        <verbose value="true"/>
    </report>

</configuration>
-->

<additional xmlns:xsi="http://www.w3.org/2001/XMLSchema-instance" xsi:noNamespaceSchemaLocation="http://sumo.dlr.de/xsd/additional_file.xsd">
    <location netOffset="-587759.26,-4476737.90" convBoundary="-302.03,0.00,1276.13,1348.68" origBoundary="-79.968728,40.436571,-79.950152,40.448794" projParameter="+proj=utm +zone=17 +ellps=WGS84 +datum=WGS84 +units=m +no_defs"/>

    <poly id="154244846" type="amenity.university" color="237,199,199" fill="1" layer="-1.00" shape="1187.97,498.80 1206.47,497.00 1247.76,512.92 1276.13,580.78 1254.13,592.36 1250.11,584.87 1240.34,590.81 1244.75,597.49 1219.64,609.96 1161.07,629.81 1154.52,606.46 1142.56,610.30 1138.27,598.97 1128.30,586.92 1095.32,590.01 1074.93,592.09 1047.77,583.35 1026.94,600.91 981.10,727.34 978.52,742.40 1213.40,825.38 1171.64,946.74 1251.23,958.99 1244.02,1018.69 1157.24,1003.81 1150.91,1002.88 1118.27,1092.88 1117.14,1115.20 1144.14,1140.00 1155.95,1141.95 1131.93,1208.13 1101.08,1200.97 1084.28,1198.05 1072.04,1232.34 1022.95,1212.86 1014.92,1204.31 1024.40,1193.87 1020.60,1190.19 1022.81,1186.12 986.52,1155.20 939.12,1198.74 885.16,1148.26 882.45,1143.99 973.21,1050.96 907.50,990.35 924.58,969.71 956.77,933.60 895.52,877.02 875.85,858.55 809.25,793.69 664.80,661.54 661.20,658.24 554.60,736.83 638.17,815.25 672.69,781.64 710.60,815.76 754.04,768.71 794.35,806.24 731.39,875.31 688.98,920.14 661.88,945.30 733.82,1016.24 659.82,1091.04 651.10,1095.81 613.65,1105.34 588.36,1134.05 560.28,1171.33 549.62,1203.11 533.13,1222.43 539.89,1274.24 548.62,1305.43 516.33,1261.63 506.04,1232.62 472.89,1215.15 463.20,1205.11 440.42,1178.53 430.12,1112.36 422.59,1058.04 419.89,1040.17 417.89,1026.94 416.67,1018.84 401.93,995.10 371.63,978.89 322.49,977.20 319.38,996.29 324.69,1026.17 242.73,1054.28 192.12,1067.29 143.83,1046.00 136.80,1035.96 90.98,1084.86 51.35,1133.75 63.37,1144.16 53.35,1160.90 80.77,1181.44 84.73,1196.69 157.50,1263.24 222.63,1269.06 232.38,1348.68 65.44,1347.97 35.12,1344.12 40.71,1325.14 33.57,1313.63 -36.06,1241.01 -57.72,1155.59 -56.10,1091.46 -48.42,1062.73 -57.98,1047.90 -95.20,1030.79 -153.86,986.43 -191.24,963.84 -299.29,886.53 -302.03,793.87 -271.69,778.89 -222.95,772.21 -185.40,767.68 -170.64,776.10 -113.14,804.30 -100.16,814.59 -59.53,733.67 -50.95,713.03 -43.68,701.19 -0.04,745.33 51.68,703.02 32.98,681.90 44.86,600.70 56.03,549.66 85.96,554.58 143.72,634.88 254.02,560.13 323.42,515.14 422.97,442.52 486.62,504.76 452.47,529.35 480.80,574.28 414.66,615.05 359.60,537.51 335.37,552.74 310.65,567.32 329.71,601.40 305.20,619.31 312.89,631.02 335.34,662.72 322.29,672.54 386.53,761.36 398.35,769.14 449.24,728.67 554.67,661.67 619.60,634.34 668.67,591.20 680.39,602.66 691.77,613.87 728.95,577.76 703.23,553.54 769.48,485.75 739.95,456.77 764.08,431.96 772.62,423.35 795.85,445.28 802.58,438.48 777.72,412.99 785.10,405.75 791.12,412.00 803.72,398.60 798.83,392.64 805.49,387.18 828.99,411.68 818.16,422.56 855.35,458.73 861.02,453.42 829.57,422.33 834.39,417.93 870.26,452.27 876.23,446.96 809.62,382.77 815.99,376.50 791.33,353.39 824.29,320.92 843.08,339.55 865.45,318.50 892.51,345.63 879.87,358.19 919.98,398.26 925.70,392.61 916.00,383.28 922.68,376.21 899.21,352.47 917.85,333.60 941.24,357.17 948.97,347.90 979.57,377.58 942.22,404.40 926.65,418.51 946.32,444.27 982.16,437.67 1057.73,438.88 1053.98,469.42 1046.13,499.84 1051.30,511.43 1060.99,537.16 1054.77,541.43 1065.07,564.59 1072.27,578.90 1103.33,574.37 1127.08,565.69 1147.82,540.32 1151.84,520.65 1162.42,516.41 1187.97,498.80"/>
    <poly id="154245869" type="building.university" color="255,230,230" fill="1" layer="-1.00" shape="843.22,766.39 858.96,781.48 855.59,784.99 866.38,795.32 869.81,791.73 874.76,796.47 883.89,786.95 894.45,797.05 912.01,778.72 901.86,769.00 911.17,759.27 907.03,755.31 910.21,752.00 899.21,741.45 896.02,744.78 871.48,721.28 861.08,717.54 850.28,728.49 850.17,728.60 849.98,728.80 849.81,729.02 849.67,729.27 849.56,729.53 849.48,729.75 849.41,730.02 849.38,730.31 849.37,730.58 849.39,730.87 849.44,731.15 849.53,731.42 849.63,731.68 849.76,731.93 849.93,732.16 859.21,741.32 857.39,743.17 855.44,741.25 850.28,746.47 852.70,748.86 846.29,755.36 845.55,754.64 841.25,759.08 845.68,763.61 843.22,766.39"/>
    <poly id="154245869#1" type="tourism.attraction" color="207,245,201" fill="1" layer="-2.00" shape="843.22,766.39 858.96,781.48 855.59,784.99 866.38,795.32 869.81,791.73 874.76,796.47 883.89,786.95 894.45,797.05 912.01,778.72 901.86,769.00 911.17,759.27 907.03,755.31 910.21,752.00 899.21,741.45 896.02,744.78 871.48,721.28 861.08,717.54 850.28,728.49 850.17,728.60 849.98,728.80 849.81,729.02 849.67,729.27 849.56,729.53 849.48,729.75 849.41,730.02 849.38,730.31 849.37,730.58 849.39,730.87 849.44,731.15 849.53,731.42 849.63,731.68 849.76,731.93 849.93,732.16 859.21,741.32 857.39,743.17 855.44,741.25 850.28,746.47 852.70,748.86 846.29,755.36 845.55,754.64 841.25,759.08 845.68,763.61 843.22,766.39"/>
    <poly id="154268802" type="building.university" color="255,230,230" fill="1" layer="-1.00" shape="1008.07,610.02 1010.48,602.77 1025.11,558.76 1027.04,552.97 1024.03,550.95 1027.69,539.09 955.25,512.92 905.57,495.19 899.45,509.08 897.09,516.02 892.28,530.15 889.40,539.29 885.92,538.49 883.61,545.25 878.17,561.18 870.69,583.09 865.63,597.92 863.91,597.96 860.39,601.77 854.73,607.49 849.53,612.51 852.81,615.36 859.04,609.68 859.92,610.03 858.18,614.70 859.67,615.23 886.78,624.69 892.81,608.88 895.01,602.38 901.81,582.26 906.45,568.54 908.54,563.56 915.37,566.26 912.04,575.41 932.65,583.28 931.83,585.33 934.52,586.27 933.48,589.71 948.46,594.85 949.43,591.73 951.81,592.46 950.83,596.02 965.51,601.31 966.63,597.59 968.92,598.53 968.05,601.99 982.94,607.15 983.79,603.82 987.06,604.80 988.18,603.06 1008.07,610.02"/>
    <poly id="154268807" type="landuse.grass" color="194,194,130" fill="1" layer="-3.00" shape="856.34,833.86 859.79,830.94 861.40,828.70 861.05,820.77 856.31,817.76 852.00,815.90 839.19,802.60 834.02,797.78 831.75,797.31 827.18,799.29 823.94,803.33 829.34,809.06 845.99,824.21 850.93,829.49 856.34,833.86"/>
    <poly id="154278540" type="landuse.grass" color="194,194,130" fill="1" layer="-3.00" shape="896.32,800.56 894.01,798.01 893.01,798.74 886.30,792.00 876.98,800.79 874.89,798.46 873.20,799.99 869.07,796.38 865.42,797.47 868.55,801.60 871.91,805.94 876.00,806.44 880.54,807.40 884.86,807.45 889.89,805.47 896.32,800.56"/>
    <poly id="154279114" type="building.university" color="255,230,230" fill="1" layer="-1.00" shape="859.67,615.23 854.15,630.79 852.39,629.47 850.51,628.34 848.51,627.41 846.43,626.69 844.29,626.19 842.10,625.93 839.90,625.88 837.71,626.08 835.55,626.50 833.45,627.14 831.42,628.00 829.50,629.07 827.69,630.33 826.03,631.78 824.53,633.38 823.21,635.14 822.07,637.03 821.14,639.03 820.42,641.11 819.93,643.25 819.66,645.44 819.62,647.64 819.82,649.82 820.23,651.98 820.88,654.09 821.74,656.12 822.81,658.04 824.07,659.84 825.51,661.50 827.12,663.01 828.88,664.33 829.90,664.94 830.76,665.46 832.76,666.40 834.84,667.11 836.99,667.60 838.29,667.79 861.69,669.79 868.15,672.09 869.42,668.49 871.94,669.38 882.51,639.59 886.78,624.69 859.67,615.23"/>
    <poly id="154420417" type="building.university" color="255,230,230" fill="1" layer="-1.00" shape="306.39,807.04 307.25,797.28 306.78,785.85 302.87,772.88 297.63,762.19 286.15,748.22 274.57,740.60 257.31,733.92 240.96,731.96 222.98,734.36 206.99,743.09 197.05,751.54 188.50,763.88 183.61,774.29 181.62,781.00 179.73,792.68 180.54,800.72 182.19,809.20 185.76,816.11 186.10,818.34 162.55,834.87 210.56,901.59 289.27,848.10 291.32,849.37 291.55,852.89 295.02,854.36 297.22,852.77 297.90,848.97 294.08,844.71 338.71,813.14 306.39,807.04"/>
    <poly id="154420417#1" type="leisure.stadium" color="207,245,201" fill="1" layer="-2.00" shape="306.39,807.04 307.25,797.28 306.78,785.85 302.87,772.88 297.63,762.19 286.15,748.22 274.57,740.60 257.31,733.92 240.96,731.96 222.98,734.36 206.99,743.09 197.05,751.54 188.50,763.88 183.61,774.29 181.62,781.00 179.73,792.68 180.54,800.72 182.19,809.20 185.76,816.11 186.10,818.34 162.55,834.87 210.56,901.59 289.27,848.10 291.32,849.37 291.55,852.89 295.02,854.36 297.22,852.77 297.90,848.97 294.08,844.71 338.71,813.14 306.39,807.04"/>
    <poly id="154420417#2" type="sport.basketball" color="79,230,125" fill="1" layer="-2.00" shape="306.39,807.04 307.25,797.28 306.78,785.85 302.87,772.88 297.63,762.19 286.15,748.22 274.57,740.60 257.31,733.92 240.96,731.96 222.98,734.36 206.99,743.09 197.05,751.54 188.50,763.88 183.61,774.29 181.62,781.00 179.73,792.68 180.54,800.72 182.19,809.20 185.76,816.11 186.10,818.34 162.55,834.87 210.56,901.59 289.27,848.10 291.32,849.37 291.55,852.89 295.02,854.36 297.22,852.77 297.90,848.97 294.08,844.71 338.71,813.14 306.39,807.04"/>
    <poly id="154421553" type="building.university" color="255,230,230" fill="1" layer="-1.00" shape="852.59,592.44 850.84,590.73 853.29,588.21 818.26,554.15 811.53,561.07 810.10,559.69 775.13,595.68 805.12,624.82 814.54,615.12 817.83,611.74 823.87,605.52 831.86,613.29 852.59,592.44"/>
    <poly id="154421792" type="landuse.grass" color="194,194,130" fill="1" layer="-3.00" shape="851.80,576.71 856.56,573.02 828.54,545.42 826.43,547.63 824.85,546.70 822.46,549.22 851.80,576.71"/>
    <poly id="154421793" type="landuse.grass" color="194,194,130" fill="1" layer="-3.00" shape="854.70,579.48 864.61,589.42 868.32,585.74 858.41,575.80 854.70,579.48"/>
    <poly id="154421794" type="landuse.grass" color="194,194,130" fill="1" layer="-3.00" shape="848.05,558.06 853.78,553.29 855.62,551.49 851.69,547.37 850.58,544.63 849.71,541.56 849.62,539.07 850.12,535.90 850.71,533.53 846.64,531.78 837.05,538.32 837.19,548.24 848.05,558.06"/>
    <poly id="154421795" type="landuse.grass" color="194,194,130" fill="1" layer="-3.00" shape="866.09,541.75 864.91,544.91 862.86,544.67 860.84,542.82 859.73,540.55 859.53,538.28 860.24,536.02 861.86,533.78 864.47,532.79 866.87,532.93 868.88,533.63 867.74,537.02 865.68,537.67 865.20,539.71 866.09,541.75"/>
    <poly id="154421796" type="building.university" color="255,230,230" fill="1" layer="-1.00" shape="749.41,512.56 713.69,548.16 718.03,552.44 713.94,556.60 740.39,582.66 744.53,578.46 748.89,582.75 757.40,574.12 759.44,576.13 772.05,563.32 774.43,565.66 788.56,550.52 749.41,512.56"/>
    <poly id="154422015" type="building.dormitory" color="255,230,230" fill="1" layer="-1.00" shape="814.52,449.93 808.67,455.72 811.27,458.34 807.97,461.60 805.87,459.47 799.64,465.63 807.51,473.58 813.89,467.26 823.01,476.48 826.83,472.69 834.28,480.22 842.61,471.98 836.44,465.74 833.83,468.33 830.41,464.87 832.93,462.38 826.87,456.25 821.12,461.94 819.66,460.47 822.33,457.83 814.52,449.93"/>
    <poly id="154422016" type="building.dormitory" color="255,230,230" fill="1" layer="-1.00" shape="796.33,469.06 790.65,474.87 792.80,476.98 789.49,480.38 787.43,478.36 781.14,484.80 788.91,492.39 791.80,489.43 793.11,490.71 787.61,496.32 794.04,502.61 796.22,500.39 799.37,503.47 797.20,505.70 803.77,512.13 811.70,504.01 803.94,496.41 807.97,492.30 805.37,489.76 804.85,490.28 798.11,483.69 804.56,477.10 796.33,469.06"/>
    <poly id="154424122" type="building.dormitory" color="255,230,230" fill="1" layer="-1.00" shape="869.21,462.11 859.28,468.40 863.87,475.65 864.45,475.28 864.93,476.04 853.92,483.00 856.33,486.81 855.33,487.44 856.55,489.37 848.92,494.21 854.84,503.56 862.20,498.90 860.18,495.70 864.07,493.24 865.66,495.75 873.03,491.09 868.13,483.35 869.65,482.38 872.25,486.49 881.59,480.59 876.79,473.02 873.64,475.01 871.21,471.16 873.87,469.47 869.21,462.11"/>
    <poly id="154424125" type="building.dormitory" color="255,230,230" fill="1" layer="-1.00" shape="830.81,490.78 819.52,498.36 821.31,501.02 818.30,503.05 822.95,509.98 829.84,505.35 831.20,507.37 827.96,509.54 834.04,518.58 841.47,513.59 839.45,510.57 843.14,508.10 844.82,510.58 852.15,505.64 845.65,495.97 837.84,501.22 830.81,490.78"/>
    <poly id="154428328" type="building.dormitory" color="255,230,230" fill="1" layer="-1.00" shape="842.84,752.00 846.05,748.75 824.79,727.98 822.84,726.07 821.14,724.41 818.58,727.01 816.87,728.76 813.28,732.40 834.65,753.29 838.18,756.74 842.84,752.00"/>
    <poly id="154428330" type="building.dormitory" color="255,230,230" fill="1" layer="-1.00" shape="795.92,678.38 799.76,682.06 800.40,681.41 822.36,702.88 826.73,698.32 828.07,696.95 829.17,695.73 832.30,698.74 834.60,696.34 833.64,693.86 828.70,692.12 804.75,669.16 795.92,678.38"/>
    <poly id="154428331" type="building.dormitory" color="255,230,230" fill="1" layer="-1.00" shape="788.50,757.43 782.71,763.48 811.22,790.79 823.61,777.86 817.05,771.54 795.28,750.59 790.11,755.96 788.50,757.43"/>
    <poly id="154428332" type="building.dormitory" color="255,230,230" fill="1" layer="-1.00" shape="777.99,747.36 773.99,751.50 747.89,726.38 748.86,725.39 755.00,719.04 761.73,725.52 783.05,703.53 776.26,696.99 784.44,688.55 789.06,692.99 810.65,713.76 807.94,716.54 806.17,718.38 802.58,722.08 790.93,710.86 771.55,730.85 783.16,742.04 779.53,745.79 777.99,747.36"/>
    <poly id="154428334" type="building.dormitory" color="255,230,230" fill="1" layer="-1.00" shape="871.48,721.28 875.01,717.59 877.44,709.87 843.50,698.55 842.91,698.38 842.40,698.30 841.88,698.27 841.36,698.28 840.85,698.37 840.34,698.49 839.85,698.68 839.38,698.90 838.95,699.18 838.54,699.50 838.17,699.87 837.84,700.27 835.24,702.98 837.96,705.58 837.40,706.03 836.05,707.41 831.70,711.75 834.31,714.30 836.23,716.35 840.62,720.68 848.04,713.17 861.08,717.54 871.48,721.28"/>
    <poly id="154431114" type="amenity.parking" color="184,184,179" fill="1" layer="-1.00" shape="794.99,730.51 794.76,729.49 794.31,728.75 793.24,727.92 792.00,727.64 790.97,727.82 789.84,728.54 789.08,729.84 788.98,730.87 789.11,731.57 789.61,732.50 790.23,733.08 791.28,733.56 792.32,733.63 792.93,733.49 794.19,732.67 794.75,731.80 794.99,730.51"/>
    <poly id="154431115" type="amenity.parking" color="184,184,179" fill="1" layer="-1.00" shape="808.14,724.11 808.59,725.08 809.49,725.84 810.45,726.13 811.66,724.84 815.29,721.14 815.47,720.35 815.24,719.61 814.46,718.87 813.38,718.62 812.47,719.07 808.14,724.11"/>
    <poly id="154431116" type="amenity.parking" color="184,184,179" fill="1" layer="-1.00" shape="780.80,727.25 780.89,730.09 783.59,732.16 781.98,734.17 800.29,753.21 811.09,763.19 813.93,764.36 816.87,765.18 821.89,763.76 824.77,761.20 826.86,757.37 826.44,753.74 822.29,749.49 823.91,747.02 814.58,738.19 812.85,739.87 807.85,734.57 820.96,721.04 823.39,722.63 828.28,716.97 824.09,714.31 828.09,711.86 827.81,709.82 826.77,707.95 824.30,705.91 821.05,705.36 813.18,698.29 807.10,704.72 814.68,711.68 801.76,725.59 798.72,722.92 794.77,719.82 791.48,718.99 788.75,719.41 784.50,721.97 782.54,724.78 780.80,727.25"/>
    <poly id="154431117" type="amenity.parking" color="184,184,179" fill="1" layer="-1.00" shape="801.31,743.64 813.12,754.93 814.54,755.92 815.96,755.37 817.39,754.49 817.75,753.01 817.71,751.82 817.26,751.20 805.69,739.73 804.60,739.31 803.01,739.86 801.64,740.52 801.27,741.94 801.31,743.64"/>
    <poly id="154474783" type="building.dormitory" color="255,230,230" fill="1" layer="-1.00" shape="867.02,396.52 861.37,402.36 863.40,404.33 859.99,407.84 857.68,405.59 851.73,411.74 859.95,419.69 862.56,416.99 863.56,417.97 858.01,423.70 864.46,429.95 867.09,427.24 870.20,430.25 867.45,433.08 874.06,439.48 882.26,431.02 874.60,423.59 878.58,419.48 869.41,410.60 875.29,404.53 867.02,396.52"/>
    <poly id="154474791" type="building.dormitory" color="255,230,230" fill="1" layer="-1.00" shape="886.16,376.11 880.06,382.24 882.88,385.05 879.65,388.29 877.17,385.82 871.19,391.84 878.94,399.55 885.15,393.30 894.52,402.62 898.68,398.44 906.29,406.01 914.30,397.95 907.83,391.53 905.35,394.02 902.36,391.03 904.47,388.91 898.12,382.59 892.57,388.16 891.52,387.12 894.36,384.27 886.16,376.11"/>
    <poly id="154536949" type="building.dormitory" color="255,230,230" fill="1" layer="-1.00" shape="773.67,428.33 765.25,437.01 776.87,448.30 774.78,450.45 770.33,446.13 762.13,454.57 770.36,462.56 789.07,443.28 773.67,428.33"/>
    <poly id="154559609" type="landuse.farmyard" color="194,194,130" fill="1" layer="-3.00" shape="778.38,413.39 792.78,427.79 796.85,423.97 803.76,430.18 805.95,430.98 824.95,411.40 803.40,389.60 799.33,392.96 804.39,398.83 791.13,412.80 785.09,405.99 778.38,413.39"/>
    <poly id="154618507" type="amenity.parking" color="184,184,179" fill="1" layer="-1.00" shape="662.14,605.12 656.23,606.79 676.86,628.52 684.37,626.48 685.18,627.52 688.82,624.66 687.55,622.19 690.67,617.17 667.88,594.92 666.47,599.38 663.78,598.82 659.24,602.55 662.14,605.12"/>
    <poly id="154638700" type="landuse.grass" color="194,194,130" fill="1" layer="-3.00" shape="709.52,608.21 709.28,609.28 710.29,610.20 719.99,603.01 720.75,601.65 720.82,600.30 719.75,599.21 718.89,599.76 718.10,599.13 717.13,599.57 717.58,600.26 716.65,601.16 715.87,600.46 713.11,602.69 714.01,603.78 713.03,604.79 712.07,603.88 711.15,604.94 710.10,606.74 710.89,607.72 710.08,608.44 709.52,608.21"/>
    <poly id="154638702" type="landuse.recreation_ground" color="194,194,130" fill="1" layer="-3.00" shape="649.13,626.19 659.02,636.73 660.43,635.62 661.74,637.22 671.30,636.99 685.13,627.69 684.22,626.61 676.68,628.68 655.88,606.91 648.35,614.96 648.50,623.70 650.05,625.18 649.13,626.19"/>
    <poly id="154638703" type="landuse.grass" color="194,194,130" fill="1" layer="-3.00" shape="646.01,617.32 646.22,625.94 641.56,621.45 646.01,617.32"/>
    <poly id="154638704" type="landuse.grass" color="194,194,130" fill="1" layer="-3.00" shape="723.09,596.66 723.67,597.49 724.10,597.83 725.30,598.28 726.32,598.26 726.91,598.07 727.95,597.30 728.59,595.98 728.62,594.97 728.49,594.44 727.69,593.24 726.36,592.57 724.89,592.62 723.64,593.37 723.06,594.20 722.83,595.03 722.87,596.05 723.09,596.66"/>
    <poly id="154638705" type="landuse.grass" color="194,194,130" fill="1" layer="-3.00" shape="694.76,611.03 700.55,616.71 704.10,614.49 704.95,611.04 703.66,609.56 705.23,607.25 706.12,608.30 706.71,605.79 705.87,604.83 705.74,603.99 706.69,603.14 707.59,604.57 709.55,601.31 709.15,600.61 710.30,599.49 710.64,600.18 712.77,597.65 712.43,597.02 713.36,595.96 713.80,596.58 716.45,594.18 715.67,593.37 716.75,592.38 717.27,592.88 718.88,590.81 719.24,589.74 719.69,589.18 720.06,587.60 718.82,586.34 716.52,588.95 694.76,611.03"/>
    <poly id="154638706" type="landuse.grass" color="194,194,130" fill="1" layer="-3.00" shape="659.88,639.53 663.26,643.01 668.78,639.37 659.88,639.53"/>
    <poly id="154648160" type="amenity.university" color="237,199,199" fill="1" layer="-1.00" shape="702.52,631.20 734.99,663.53 769.43,624.74 742.91,600.86 702.52,631.20"/>
    <poly id="154652482" type="amenity.university" color="237,199,199" fill="1" layer="-1.00" shape="462.12,392.28 534.56,461.47 563.48,432.53 491.48,362.24 462.12,392.28"/>
    <poly id="154666270" type="building.dormitory" color="255,230,230" fill="1" layer="-1.00" shape="714.31,818.27 749.55,849.05 788.82,806.18 755.23,774.68 714.31,818.27"/>
    <poly id="154764659" type="amenity.university" color="237,199,199" fill="1" layer="-1.00" shape="583.13,449.10 552.83,480.45 570.48,498.31 602.03,467.39 583.13,449.10"/>
    <poly id="154945597" type="amenity.place_of_worship" color="237,199,199" fill="1" layer="-1.00" shape="724.10,761.93 725.69,764.66 730.39,766.51 733.60,770.70 734.83,773.78 739.67,777.62 725.54,793.34 725.69,795.51 723.49,798.18 719.15,797.60 713.82,804.56 711.29,803.46 705.50,803.56 698.66,799.52 696.90,795.17 695.88,789.74 695.73,786.85 698.50,782.38 697.62,780.01 697.65,777.49 703.70,772.15 706.20,773.99 720.35,757.37 724.10,761.93"/>
    <poly id="154945597#1" type="building.church" color="255,230,230" fill="1" layer="-1.00" shape="724.10,761.93 725.69,764.66 730.39,766.51 733.60,770.70 734.83,773.78 739.67,777.62 725.54,793.34 725.69,795.51 723.49,798.18 719.15,797.60 713.82,804.56 711.29,803.46 705.50,803.56 698.66,799.52 696.90,795.17 695.88,789.74 695.73,786.85 698.50,782.38 697.62,780.01 697.65,777.49 703.70,772.15 706.20,773.99 720.35,757.37 724.10,761.93"/>
    <poly id="154945598" type="building.university" color="255,230,230" fill="1" layer="-1.00" shape="550.18,740.66 541.94,749.30 540.59,748.04 522.12,767.01 525.90,770.74 524.19,772.54 520.91,769.49 514.93,777.04 523.95,784.89 526.43,783.53 543.81,799.43 541.46,801.32 543.01,804.71 544.15,804.76 550.45,810.72 554.43,815.53 563.12,820.01 575.25,808.34 589.36,793.93 595.14,788.03 586.97,781.12 583.15,784.95 578.56,780.78 584.73,774.10 577.81,767.20 575.07,767.88 560.64,753.21 558.48,747.06 550.18,740.66"/>
    <poly id="154945603" type="building.university" color="255,230,230" fill="1" layer="-1.00" shape="503.16,750.86 535.18,728.26 531.61,723.25 518.42,704.72 515.60,700.76 483.59,723.37 503.16,750.86"/>
    <poly id="154945605" type="building.dormitory" color="255,230,230" fill="1" layer="-1.00" shape="463.75,583.33 472.69,578.40 473.63,576.99 471.94,574.40 459.28,554.85 461.99,553.10 457.92,546.80 408.40,578.62 404.50,581.12 398.46,585.00 402.70,591.55 406.08,589.38 420.63,611.83 430.92,605.23 418.95,586.74 430.32,579.44 433.60,584.52 443.58,578.11 439.92,572.46 451.78,564.85 463.75,583.33"/>
    <poly id="154945606" type="building.university" color="255,230,230" fill="1" layer="-1.00" shape="614.63,677.03 596.84,652.04 531.37,698.29 530.08,696.47 518.42,704.72 531.61,723.25 535.30,720.64 546.44,712.77 542.23,706.86 586.14,675.85 596.23,690.03 614.63,677.03"/>
    <poly id="154945609" type="amenity.school" color="237,199,199" fill="1" layer="-1.00" shape="585.74,758.62 584.12,760.64 624.49,798.68 631.43,792.30 630.35,791.04 634.12,788.21 645.47,798.20 651.27,792.52 648.83,790.52 665.14,773.40 667.08,775.01 672.47,768.81 662.18,758.52 655.00,765.29 653.07,763.46 623.63,735.43 615.45,727.65 631.84,711.27 618.03,697.75 571.96,745.64 585.74,758.62"/>
    <poly id="154945609#1" type="building.yes" color="255,230,230" fill="1" layer="-1.00" shape="585.74,758.62 584.12,760.64 624.49,798.68 631.43,792.30 630.35,791.04 634.12,788.21 645.47,798.20 651.27,792.52 648.83,790.52 665.14,773.40 667.08,775.01 672.47,768.81 662.18,758.52 655.00,765.29 653.07,763.46 623.63,735.43 615.45,727.65 631.84,711.27 618.03,697.75 571.96,745.64 585.74,758.62"/>
    <poly id="240900027" type="building.yes" color="255,230,230" fill="1" layer="-1.00" shape="686.79,529.78 706.08,510.15 717.21,521.01 697.92,540.63 686.79,529.78"/>
    <poly id="240900028" type="building.yes" color="255,230,230" fill="1" layer="-1.00" shape="717.21,521.01 706.08,510.15 704.01,508.13 713.26,498.71 719.02,492.87 728.97,502.57 732.21,505.74 717.21,521.01"/>
    <poly id="240900029" type="building.yes" color="255,230,230" fill="1" layer="-1.00" shape="686.79,529.78 675.77,519.02 695.06,499.40 704.01,508.13 706.08,510.15 686.79,529.78"/>
    <poly id="240900030" type="building.yes" color="255,230,230" fill="1" layer="-1.00" shape="653.83,497.62 673.12,478.00 690.13,494.59 670.84,514.21 653.83,497.62"/>
    <poly id="240900031" type="building.yes" color="255,230,230" fill="1" layer="-1.00" shape="675.77,519.02 670.84,514.21 690.13,494.59 695.06,499.40 675.77,519.02"/>
    <poly id="240900032" type="building.yes" color="255,230,230" fill="1" layer="-1.00" shape="673.12,478.00 679.25,471.77 701.18,493.18 695.06,499.40 690.13,494.59 673.12,478.00"/>
    <poly id="240900033" type="building.yes" color="255,230,230" fill="1" layer="-1.00" shape="679.25,471.77 687.67,463.21 709.60,484.61 701.18,493.18 679.25,471.77"/>
    <poly id="240900034" type="building.yes" color="255,230,230" fill="1" layer="-1.00" shape="687.67,463.21 696.55,454.17 718.49,475.57 709.60,484.61 687.67,463.21"/>
    <poly id="240900035" type="building.yes" color="255,230,230" fill="1" layer="-1.00" shape="696.55,454.17 707.50,443.04 729.43,464.45 718.49,475.57 696.55,454.17"/>
    <poly id="240900037" type="building.yes" color="255,230,230" fill="1" layer="-1.00" shape="585.32,570.12 620.94,533.51 652.49,565.28 644.02,573.11 646.84,576.01 622.90,600.46 619.90,603.52 585.32,570.12"/>
    <poly id="240900038" type="building.yes" color="255,230,230" fill="1" layer="-1.00" shape="631.27,608.51 654.97,584.32 646.84,576.01 622.90,600.46 631.27,608.51"/>
    <poly id="240900039" type="building.yes" color="255,230,230" fill="1" layer="-1.00" shape="674.72,543.72 685.30,554.91 654.97,584.32 646.84,576.01 644.02,573.11 652.49,565.28 654.15,563.63 657.05,560.91 674.72,543.72"/>
    <poly id="240900040" type="building.yes" color="255,230,230" fill="1" layer="-1.00" shape="624.47,529.29 641.51,510.91 651.72,521.00 634.61,538.62 624.47,529.29"/>
    <poly id="240900041" type="building.yes" color="255,230,230" fill="1" layer="-1.00" shape="650.16,553.99 667.47,536.16 674.72,543.72 657.05,560.91 650.16,553.99"/>
    <poly id="240900042" type="building.yes" color="255,230,230" fill="1" layer="-1.00" shape="634.35,538.89 634.61,538.62 651.72,521.00 667.47,536.16 650.16,553.99 647.34,551.39 651.11,547.51 646.87,543.43 644.47,545.91 642.03,543.56 646.01,539.46 643.11,536.66 637.76,542.17 634.35,538.89"/>
    <poly id="240900043" type="building.yes" color="255,230,230" fill="1" layer="-1.00" shape="595.67,440.39 605.98,451.34 610.09,446.74 611.61,446.08 612.67,445.02 613.17,443.03 618.28,438.34 620.14,440.53 615.58,445.29 613.79,446.06 612.56,447.40 611.82,448.85 607.70,452.85 618.56,463.08 622.04,458.71 623.65,458.40 625.15,457.18 625.75,455.03 630.51,450.70 634.15,454.54 628.99,458.85 627.42,459.47 626.08,460.32 624.99,461.92 621.34,466.19 632.88,476.21 636.49,471.92 637.79,471.33 639.08,469.97 639.80,468.03 644.48,463.25 646.62,465.70 641.81,470.34 640.19,470.96 638.79,472.15 637.93,474.09 634.29,477.90 644.89,488.16 663.00,470.00 661.18,467.67 660.25,467.76 658.83,466.53 658.23,465.53 645.76,451.83 630.57,437.83 626.36,433.83 624.93,435.30 617.73,429.92 618.95,427.84 614.87,423.72 615.19,422.16 613.91,421.04 602.14,432.90 599.41,435.80 595.67,440.39"/>
    <poly id="240900047" type="amenity.parking" color="184,184,179" fill="1" layer="-1.00" shape="707.63,425.17 740.39,390.64 688.81,342.07 656.05,376.60 707.63,425.17"/>
    <poly id="240900048" type="building.yes" color="255,230,230" fill="1" layer="-1.00" shape="606.94,347.32 560.45,394.78 560.61,402.39 567.22,408.48 574.19,407.86 579.84,403.11 581.39,399.06 595.25,384.92 612.35,401.66 636.86,376.64 606.94,347.32"/>
    <poly id="240900049" type="building.commercial" color="255,230,230" fill="1" layer="-1.00" shape="541.47,341.80 537.27,346.14 534.99,343.94 518.53,360.99 532.86,374.83 549.09,358.02 546.96,355.96 551.39,351.38 541.47,341.80"/>
    <poly id="240900050" type="building.yes" color="255,230,230" fill="1" layer="-1.00" shape="696.73,565.76 706.99,575.87 705.14,577.74 683.27,599.75 673.02,589.65 696.73,565.76"/>
    <poly id="240900051" type="building.yes" color="255,230,230" fill="1" layer="-1.00" shape="705.14,577.74 716.52,588.95 691.77,613.87 680.39,602.66 683.27,599.75 705.14,577.74"/>
    <poly id="240900052" type="landuse.grass" color="194,194,130" fill="1" layer="-3.00" shape="470.22,701.66 443.67,656.76 504.40,614.01 495.82,590.79 538.71,561.58 590.58,613.92 588.19,629.30 552.82,644.64 470.22,701.66"/>
    <poly id="240900053" type="building.commercial" color="255,230,230" fill="1" layer="-1.00" shape="561.46,434.30 534.68,462.01 545.07,472.05 571.85,444.33 561.46,434.30"/>
    <poly id="240900054" type="building.yes" color="255,230,230" fill="1" layer="-1.00" shape="588.92,513.40 605.02,529.18 629.34,504.54 613.24,488.76 588.92,513.40"/>
    <poly id="240900055" type="building.yes" color="255,230,230" fill="1" layer="-1.00" shape="573.25,498.04 588.92,513.40 613.24,488.76 597.56,473.41 573.25,498.04"/>
    <poly id="240900056" type="landuse.grass" color="194,194,130" fill="1" layer="-3.00" shape="261.43,345.07 292.98,315.04 334.75,356.63 333.59,369.98 313.55,390.79 307.92,385.37 315.72,377.45 315.16,368.42 287.60,344.04 275.37,357.26 261.43,345.07"/>
    <poly id="240900057" type="amenity.parking" color="184,184,179" fill="1" layer="-1.00" shape="281.25,524.65 259.64,491.27 176.45,547.54 198.15,579.49 281.25,524.65"/>
    <poly id="240900057#1" type="building.yes" color="255,230,230" fill="1" layer="-1.00" shape="281.25,524.65 259.64,491.27 176.45,547.54 198.15,579.49 281.25,524.65"/>