<?xml version="1.0" encoding="UTF-8"?>

<!-- generated on Wed 27 Jun 2018 01:55:06 PM EDT by Netedit Version 0.32.0
<?xml version="1.0" encoding="UTF-8"?>

<configuration xmlns:xsi="http://www.w3.org/2001/XMLSchema-instance" xsi:noNamespaceSchemaLocation="http://sumo.dlr.de/xsd/netconvertConfiguration.xsd">

    <input>
        <sumo-net-file value="osm.net.xml"/>
    </input>

    <output>
        <output-file value="osm.net.xml"/>
        <output.street-names value="true"/>
    </output>

    <processing>
        <no-turnarounds value="true"/>
        <offset.disable-normalization value="true"/>
        <lefthand value="false"/>
        <junctions.corner-detail value="5"/>
        <rectangular-lane-cut value="false"/>
        <walkingareas value="false"/>
    </processing>

</configuration>
-->

<net version="0.27" junctionCornerDetail="5" xmlns:xsi="http://www.w3.org/2001/XMLSchema-instance" xsi:noNamespaceSchemaLocation="http://sumo.dlr.de/xsd/net_file.xsd">

    <location netOffset="-587759.26,-4476737.90" convBoundary="0.00,0.00,1121.75,1105.40" origBoundary="-79.965176,40.436571,-79.951898,40.446497" projParameter="+proj=utm +zone=17 +ellps=WGS84 +datum=WGS84 +units=m +no_defs"/>

    <type id="highway.bridleway" priority="1" numLanes="1" speed="2.78" allow="pedestrian" oneway="1" width="2.00"/>
    <type id="highway.bus_guideway" priority="1" numLanes="1" speed="8.33" allow="bus" oneway="1"/>
    <type id="highway.cycleway" priority="1" numLanes="1" speed="5.56" allow="bicycle" oneway="0" width="1.00"/>
    <type id="highway.footway" priority="1" numLanes="1" speed="2.78" allow="pedestrian" oneway="1" width="2.00"/>
    <type id="highway.ford" priority="1" numLanes="1" speed="2.78" allow="army" oneway="0"/>
    <type id="highway.living_street" priority="3" numLanes="1" speed="2.78" disallow="tram rail_urban rail rail_electric ship" oneway="0"/>
    <type id="highway.motorway" priority="13" numLanes="2" speed="44.44" allow="private emergency authority army vip passenger hov taxi bus coach delivery truck trailer motorcycle evehicle custom1 custom2" oneway="1"/>
    <type id="highway.motorway_link" priority="12" numLanes="1" speed="22.22" allow="private emergency authority army vip passenger hov taxi bus coach delivery truck trailer motorcycle evehicle custom1 custom2" oneway="1"/>
    <type id="highway.path" priority="1" numLanes="1" speed="2.78" allow="bicycle pedestrian" oneway="1" width="2.00"/>
    <type id="highway.pedestrian" priority="1" numLanes="1" speed="2.78" allow="pedestrian" oneway="1" width="2.00"/>
    <type id="highway.primary" priority="9" numLanes="2" speed="27.78" disallow="tram rail_urban rail rail_electric ship" oneway="0"/>
    <type id="highway.primary_link" priority="8" numLanes="1" speed="22.22" disallow="tram rail_urban rail rail_electric ship" oneway="0"/>
    <type id="highway.raceway" priority="14" numLanes="2" speed="83.33" allow="vip" oneway="0"/>
    <type id="highway.residential" priority="4" numLanes="1" speed="13.89" disallow="tram rail_urban rail rail_electric ship" oneway="0"/>
    <type id="highway.secondary" priority="7" numLanes="2" speed="27.78" disallow="tram rail_urban rail rail_electric ship" oneway="0"/>
    <type id="highway.secondary_link" priority="6" numLanes="1" speed="22.22" disallow="tram rail_urban rail rail_electric ship" oneway="0"/>
    <type id="highway.service" priority="2" numLanes="1" speed="5.56" allow="delivery bicycle pedestrian" oneway="0"/>
    <type id="highway.services" priority="1" numLanes="1" speed="8.33" disallow="tram rail_urban rail rail_electric ship" oneway="0"/>
    <type id="highway.stairs" priority="1" numLanes="1" speed="1.39" allow="pedestrian" oneway="1" width="2.00"/>
    <type id="highway.step" priority="1" numLanes="1" speed="1.39" allow="pedestrian" oneway="1" width="2.00"/>
    <type id="highway.steps" priority="1" numLanes="1" speed="1.39" allow="pedestrian" oneway="1" width="2.00"/>
    <type id="highway.tertiary" priority="6" numLanes="1" speed="22.22" disallow="tram rail_urban rail rail_electric ship" oneway="0"/>
    <type id="highway.tertiary_link" priority="5" numLanes="1" speed="22.22" disallow="tram rail_urban rail rail_electric ship" oneway="0"/>
    <type id="highway.track" priority="1" numLanes="1" speed="5.56" disallow="tram rail_urban rail rail_electric ship" oneway="0"/>
    <type id="highway.trunk" priority="11" numLanes="2" speed="27.78" disallow="tram rail_urban rail rail_electric bicycle pedestrian ship" oneway="0"/>
    <type id="highway.trunk_link" priority="10" numLanes="1" speed="22.22" disallow="tram rail_urban rail rail_electric bicycle pedestrian ship" oneway="0"/>
    <type id="highway.unclassified" priority="5" numLanes="1" speed="13.89" disallow="tram rail_urban rail rail_electric ship" oneway="0"/>
    <type id="highway.unsurfaced" priority="1" numLanes="1" speed="8.33" disallow="tram rail_urban rail rail_electric ship" oneway="0"/>
    <type id="railway.light_rail" priority="15" numLanes="1" speed="27.78" allow="rail_urban" oneway="1"/>
    <type id="railway.preserved" priority="15" numLanes="1" speed="27.78" allow="rail" oneway="1"/>
    <type id="railway.rail" priority="15" numLanes="1" speed="83.33" allow="rail rail_electric" oneway="1"/>
    <type id="railway.subway" priority="15" numLanes="1" speed="27.78" allow="rail_urban" oneway="1"/>
    <type id="railway.tram" priority="15" numLanes="1" speed="13.89" allow="tram" oneway="1"/>

    <edge id=":104507928_0" function="internal">
        <lane id=":104507928_0_0" index="0" disallow="tram rail_urban rail rail_electric ship" speed="27.78" length="1.51" shape="593.69,600.94 593.44,600.69 593.27,600.51 593.09,600.34 592.80,600.14"/>
        <lane id=":104507928_0_1" index="1" disallow="tram rail_urban rail rail_electric ship" speed="27.78" length="1.51" shape="596.01,598.60 595.63,598.21 595.37,597.95 595.09,597.72 594.65,597.41"/>
    </edge>
    <edge id=":104507928_2" function="internal">
        <lane id=":104507928_2_0" index="0" disallow="tram rail_urban rail rail_electric ship" speed="25.00" length="0.61" shape="591.41,603.25 591.28,603.13 591.19,603.04 591.09,602.97 590.94,602.86"/>
    </edge>
    <edge id=":104507936_0" function="internal">
        <lane id=":104507936_0_0" index="0" disallow="tram rail_urban rail rail_electric ship" speed="22.22" length="0.17" shape="581.72,643.25 581.57,643.33"/>
    </edge>
    <edge id=":104507936_1" function="internal">
        <lane id=":104507936_1_0" index="0" disallow="tram rail_urban rail rail_electric ship" speed="22.22" length="2.41" shape="581.72,643.25 580.24,643.19 579.45,642.70"/>
    </edge>
    <edge id=":104507936_4" function="internal">
        <lane id=":104507936_4_0" index="0" speed="22.22" length="2.41" shape="579.45,642.70 579.38,641.78 580.00,640.43"/>
    </edge>
    <edge id=":104507936_2" function="internal">
        <lane id=":104507936_2_0" index="0" disallow="tram rail_urban rail rail_electric ship" speed="22.22" length="0.15" shape="580.13,640.35 580.00,640.43"/>
    </edge>
    <edge id=":104507936_3" function="internal">
        <lane id=":104507936_3_0" index="0" disallow="tram rail_urban rail rail_electric ship" speed="22.22" length="2.41" shape="580.13,640.35 581.61,640.56 582.34,641.12"/>
    </edge>
    <edge id=":104507936_5" function="internal">
        <lane id=":104507936_5_0" index="0" speed="22.22" length="2.41" shape="582.34,641.12 582.32,642.04 581.57,643.33"/>
    </edge>
    <edge id=":104580895_0" function="internal">
        <lane id=":104580895_0_0" index="0" disallow="tram rail_urban rail rail_electric ship" speed="27.78" length="9.63" shape="513.66,522.87 506.70,516.13"/>
        <lane id=":104580895_0_1" index="1" disallow="tram rail_urban rail rail_electric ship" speed="27.78" length="9.63" shape="515.91,520.45 509.04,513.80"/>
    </edge>
    <edge id=":104580895_2" function="internal">
        <lane id=":104580895_2_0" index="0" disallow="tram rail_urban rail rail_electric ship" speed="20.84" length="7.90" shape="515.91,520.45 513.99,518.39 512.93,516.59 512.74,515.05 513.42,513.77"/>
    </edge>
    <edge id=":104580895_3" function="internal">
        <lane id=":104580895_3_0" index="0" disallow="tram rail_urban rail rail_electric ship" speed="20.84" length="7.90" shape="515.79,516.07 514.54,516.79 512.99,516.65 511.16,515.65 509.04,513.80"/>
    </edge>
    <edge id=":104580895_4" function="internal">
        <lane id=":104580895_4_0" index="0" disallow="tram rail_urban rail rail_electric ship" speed="13.89" length="4.82" shape="515.79,516.07 514.34,516.38 513.46,516.10 513.15,515.23 513.42,513.77"/>
    </edge>
    <edge id=":104580909_0" function="internal">
        <lane id=":104580909_0_0" index="0" disallow="tram rail_urban rail rail_electric ship" speed="9.73" length="5.02" shape="551.03,484.12 549.92,483.30 548.83,483.03 547.73,483.32 546.64,484.16"/>
    </edge>
    <edge id=":104580909_1" function="internal">
        <lane id=":104580909_1_0" index="0" allow="delivery bicycle pedestrian" speed="5.56" length="9.58" shape="551.03,484.12 544.19,477.41"/>
    </edge>
    <edge id=":104580909_2" function="internal">
        <lane id=":104580909_2_0" index="0" disallow="tram rail_urban rail rail_electric ship" speed="9.73" length="10.40" shape="551.03,484.12 549.32,481.85 548.72,479.57 549.24,477.26 550.88,474.94"/>
    </edge>
    <edge id=":104580909_3" function="internal">
        <lane id=":104580909_3_0" index="0" allow="delivery bicycle pedestrian" speed="5.56" length="4.82" shape="551.03,484.12 550.73,482.66 551.02,481.78 551.89,481.49 553.35,481.77"/>
    </edge>
    <edge id=":104580909_4" function="internal">
        <lane id=":104580909_4_0" index="0" allow="delivery bicycle pedestrian" speed="9.73" length="5.19" shape="553.28,477.20 552.46,478.36 552.20,479.51 552.50,480.65 553.35,481.77"/>
    </edge>
    <edge id=":104580909_5" function="internal">
        <lane id=":104580909_5_0" index="0" disallow="tram rail_urban rail rail_electric ship" speed="13.89" length="9.62" shape="553.28,477.20 546.64,484.16"/>
    </edge>
    <edge id=":104580909_6" function="internal">
        <lane id=":104580909_6_0" index="0" allow="delivery bicycle pedestrian" speed="9.73" length="5.34" shape="553.28,477.20 551.05,478.98 548.79,479.61 548.66,479.58"/>
    </edge>
    <edge id=":104580909_7" function="internal">
        <lane id=":104580909_7_0" index="0" disallow="tram rail_urban rail rail_electric ship" speed="13.89" length="2.41" shape="553.28,477.20 551.83,477.54 550.95,477.27"/>
    </edge>
    <edge id=":104580909_16" function="internal">
        <lane id=":104580909_16_0" index="0" speed="9.73" length="5.07" shape="548.66,479.58 546.51,479.09 544.19,477.41"/>
    </edge>
    <edge id=":104580909_17" function="internal">
        <lane id=":104580909_17_0" index="0" speed="13.89" length="2.41" shape="550.95,477.27 550.63,476.41 550.88,474.94"/>
    </edge>
    <edge id=":104580909_8" function="internal">
        <lane id=":104580909_8_0" index="0" disallow="tram rail_urban rail rail_electric ship" speed="9.73" length="5.02" shape="546.49,475.04 547.61,475.85 548.71,476.10 549.80,475.80 550.88,474.94"/>
    </edge>
    <edge id=":104580909_9" function="internal">
        <lane id=":104580909_9_0" index="0" allow="delivery bicycle pedestrian" speed="5.56" length="9.61" shape="546.49,475.04 553.35,481.77"/>
    </edge>
    <edge id=":104580909_10" function="internal">
        <lane id=":104580909_10_0" index="0" disallow="tram rail_urban rail rail_electric ship" speed="9.73" length="10.40" shape="546.49,475.04 548.24,477.30 548.84,479.57 548.31,481.86 546.64,484.16"/>
    </edge>
    <edge id=":104580909_11" function="internal">
        <lane id=":104580909_11_0" index="0" allow="delivery bicycle pedestrian" speed="5.56" length="4.82" shape="546.49,475.04 546.81,476.50 546.53,477.38 545.66,477.68 544.19,477.41"/>
    </edge>
    <edge id=":104580909_12" function="internal">
        <lane id=":104580909_12_0" index="0" allow="delivery bicycle pedestrian" speed="9.73" length="5.08" shape="544.27,481.87 545.09,480.74 545.35,479.62 545.05,478.51 544.19,477.41"/>
    </edge>
    <edge id=":104580909_13" function="internal">
        <lane id=":104580909_13_0" index="0" disallow="tram rail_urban rail rail_electric ship" speed="13.89" length="9.57" shape="544.27,481.87 550.88,474.94"/>
    </edge>
    <edge id=":104580909_14" function="internal">
        <lane id=":104580909_14_0" index="0" allow="delivery bicycle pedestrian" speed="9.73" length="5.19" shape="544.27,481.87 546.53,480.12 548.79,479.52"/>
    </edge>
    <edge id=":104580909_15" function="internal">
        <lane id=":104580909_15_0" index="0" disallow="tram rail_urban rail rail_electric ship" speed="13.89" length="2.41" shape="544.27,481.87 545.73,481.55 546.61,481.83"/>
    </edge>
    <edge id=":104580909_18" function="internal">
        <lane id=":104580909_18_0" index="0" speed="9.73" length="5.19" shape="548.79,479.52 551.07,480.07 553.35,481.77"/>
    </edge>
    <edge id=":104580909_19" function="internal">
        <lane id=":104580909_19_0" index="0" speed="13.89" length="2.41" shape="546.61,481.83 546.91,482.70 546.64,484.16"/>
    </edge>
    <edge id=":104580920_0" function="internal">
        <lane id=":104580920_0_0" index="0" disallow="tram rail_urban rail rail_electric ship" speed="12.54" length="6.42" shape="581.05,438.32 582.70,439.62 584.18,440.22 585.51,440.13 586.67,439.36"/>
    </edge>
    <edge id=":104580920_1" function="internal">
        <lane id=":104580920_1_0" index="0" disallow="tram rail_urban rail rail_electric ship" speed="11.18" length="9.50" shape="581.05,438.32 587.94,444.86"/>
        <lane id=":104580920_1_1" index="1" disallow="tram rail_urban rail rail_electric ship" speed="11.18" length="9.50" shape="578.78,440.72 585.67,447.26"/>
    </edge>
    <edge id=":104580920_3" function="internal">
        <lane id=":104580920_3_0" index="0" disallow="tram rail_urban rail rail_electric ship" speed="12.54" length="7.85" shape="578.78,440.72 580.68,442.79 581.73,444.58 581.93,446.12 581.29,447.38"/>
    </edge>
    <edge id=":104580920_4" function="internal">
        <lane id=":104580920_4_0" index="0" disallow="tram rail_urban rail rail_electric ship" speed="13.89" length="9.74" shape="578.88,445.12 581.03,443.22 582.76,442.22 584.50,441.23 586.67,439.36"/>
    </edge>
    <edge id=":104580920_5" function="internal">
        <lane id=":104580920_5_0" index="0" disallow="tram rail_urban rail rail_electric ship" speed="12.54" length="7.86" shape="578.88,445.12 580.11,444.40 581.65,444.52 583.50,445.47 585.67,447.26"/>
    </edge>
    <edge id=":104580920_6" function="internal">
        <lane id=":104580920_6_0" index="0" disallow="tram rail_urban rail rail_electric ship" speed="13.89" length="4.82" shape="578.88,445.12 580.33,444.79 581.22,445.05 581.54,445.92 581.29,447.38"/>
    </edge>
    <edge id=":104580931_0" function="internal">
        <lane id=":104580931_0_0" index="0" disallow="tram rail_urban rail rail_electric ship" speed="13.89" length="6.25" shape="733.51,292.11 729.07,287.70"/>
    </edge>
    <edge id=":104580931_1" function="internal">
        <lane id=":104580931_1_0" index="0" disallow="tram rail_urban rail rail_electric ship" speed="13.89" length="3.09" shape="733.51,292.11 732.81,290.86 732.96,289.32 733.01,289.22"/>
    </edge>
    <edge id=":104580931_2" function="internal">
        <lane id=":104580931_2_0" index="0" disallow="tram rail_urban rail rail_electric ship" speed="13.89" length="2.41" shape="733.51,292.11 733.21,290.65 733.49,289.77"/>
    </edge>
    <edge id=":104580931_9" function="internal">
        <lane id=":104580931_9_0" index="0" speed="13.89" length="4.79" shape="733.01,289.22 733.95,287.48 735.79,285.35"/>
    </edge>
    <edge id=":104580931_10" function="internal">
        <lane id=":104580931_10_0" index="0" speed="13.89" length="2.41" shape="733.49,289.77 734.37,289.48 735.83,289.76"/>
    </edge>
    <edge id=":104580931_3" function="internal">
        <lane id=":104580931_3_0" index="0" disallow="tram rail_urban rail rail_electric ship" speed="13.89" length="5.00" shape="731.40,285.36 732.50,286.19 733.60,286.46 734.69,286.18 735.79,285.35"/>
    </edge>
    <edge id=":104580931_4" function="internal">
        <lane id=":104580931_4_0" index="0" disallow="tram rail_urban rail rail_electric ship" speed="13.89" length="6.24" shape="731.40,285.36 735.83,289.76"/>
    </edge>
    <edge id=":104580931_5" function="internal">
        <lane id=":104580931_5_0" index="0" disallow="tram rail_urban rail rail_electric ship" speed="13.89" length="2.41" shape="731.40,285.36 731.69,286.82 731.40,287.70"/>
    </edge>
    <edge id=":104580931_11" function="internal">
        <lane id=":104580931_11_0" index="0" speed="13.89" length="2.41" shape="731.40,287.70 730.53,287.99 729.07,287.70"/>
    </edge>
    <edge id=":104580931_6" function="internal">
        <lane id=":104580931_6_0" index="0" disallow="tram rail_urban rail rail_electric ship" speed="13.89" length="5.06" shape="729.12,292.15 729.93,291.03 730.19,289.92 729.91,288.81 729.07,287.70"/>
    </edge>
    <edge id=":104580931_7" function="internal">
        <lane id=":104580931_7_0" index="0" disallow="tram rail_urban rail rail_electric ship" speed="13.89" length="9.52" shape="729.12,292.15 735.79,285.35"/>
    </edge>
    <edge id=":104580931_8" function="internal">
        <lane id=":104580931_8_0" index="0" disallow="tram rail_urban rail rail_electric ship" speed="13.89" length="7.87" shape="729.12,292.15 731.22,290.28 733.03,289.25 734.57,289.08 735.83,289.76"/>
    </edge>
    <edge id=":104639490_0" function="internal">
        <lane id=":104639490_0_0" index="0" disallow="tram rail_urban rail rail_electric ship" speed="18.05" length="5.02" shape="333.11,506.01 332.18,504.99 331.15,504.51 330.02,504.57 328.79,505.18"/>
    </edge>
    <edge id=":104639490_1" function="internal">
        <lane id=":104639490_1_0" index="0" disallow="tram rail_urban rail rail_electric ship" speed="18.05" length="10.39" shape="333.11,506.01 331.86,503.45 331.74,501.11 332.75,499.00 334.88,497.10"/>
    </edge>
    <edge id=":104639490_2" function="internal">
        <lane id=":104639490_2_0" index="0" disallow="tram rail_urban rail rail_electric ship" speed="13.89" length="4.82" shape="333.11,506.01 333.10,504.52 333.55,503.72 334.47,503.60 335.84,504.16"/>
    </edge>
    <edge id=":104639490_3" function="internal">
        <lane id=":104639490_3_0" index="0" disallow="tram rail_urban rail rail_electric ship" speed="18.05" length="5.01" shape="336.70,499.86 335.67,500.77 335.18,501.79 335.24,502.92 335.84,504.16"/>
    </edge>
    <edge id=":104639490_4" function="internal">
        <lane id=":104639490_4_0" index="0" disallow="tram rail_urban rail rail_electric ship" speed="22.22" length="9.53" shape="336.70,499.86 328.79,505.18"/>
    </edge>
    <edge id=":104639490_5" function="internal">
        <lane id=":104639490_5_0" index="0" disallow="tram rail_urban rail rail_electric ship" speed="22.22" length="2.41" shape="336.70,499.86 335.21,499.85 334.41,499.39"/>
    </edge>
    <edge id=":104639490_9" function="internal">
        <lane id=":104639490_9_0" index="0" speed="22.22" length="2.41" shape="334.41,499.39 334.30,498.47 334.88,497.10"/>
    </edge>
    <edge id=":104639490_6" function="internal">
        <lane id=":104639490_6_0" index="0" disallow="tram rail_urban rail rail_electric ship" speed="22.22" length="9.59" shape="326.92,502.46 334.88,497.10"/>
    </edge>
    <edge id=":104639490_7" function="internal">
        <lane id=":104639490_7_0" index="0" disallow="tram rail_urban rail rail_electric ship" speed="18.05" length="5.33" shape="326.92,502.46 329.47,501.20 331.80,501.07 331.94,501.13"/>
    </edge>
    <edge id=":104639490_8" function="internal">
        <lane id=":104639490_8_0" index="0" disallow="tram rail_urban rail rail_electric ship" speed="22.22" length="2.41" shape="326.92,502.46 328.41,502.44 329.22,502.89"/>
    </edge>
    <edge id=":104639490_10" function="internal">
        <lane id=":104639490_10_0" index="0" speed="18.05" length="5.04" shape="331.94,501.13 333.93,502.05 335.84,504.16"/>
    </edge>
    <edge id=":104639490_11" function="internal">
        <lane id=":104639490_11_0" index="0" speed="22.22" length="2.41" shape="329.22,502.89 329.35,503.80 328.79,505.18"/>
    </edge>
    <edge id=":104639501_0" function="internal">
        <lane id=":104639501_0_0" index="0" disallow="tram rail_urban rail rail_electric ship" speed="22.22" length="5.09" shape="203.01,595.57 202.03,594.55 200.97,594.07 199.83,594.13 198.61,594.74"/>
    </edge>
    <edge id=":104639501_1" function="internal">
        <lane id=":104639501_1_0" index="0" disallow="tram rail_urban rail rail_electric ship" speed="22.22" length="10.45" shape="203.01,595.57 201.67,593.03 201.48,590.69 202.44,588.54 204.56,586.59"/>
    </edge>
    <edge id=":104639501_2" function="internal">
        <lane id=":104639501_2_0" index="0" disallow="tram rail_urban rail rail_electric ship" speed="22.22" length="2.69" shape="203.01,595.57 202.95,594.08 203.38,593.27 203.66,593.22"/>
    </edge>
    <edge id=":104639501_9" function="internal">
        <lane id=":104639501_9_0" index="0" speed="22.22" length="2.13" shape="203.66,593.22 204.29,593.12 205.68,593.63"/>
    </edge>
    <edge id=":104639501_3" function="internal">
        <lane id=":104639501_3_0" index="0" disallow="tram rail_urban rail rail_electric ship" speed="22.22" length="5.03" shape="206.43,589.31 205.41,590.25 204.95,591.28 205.04,592.41 205.68,593.63"/>
    </edge>
    <edge id=":104639501_4" function="internal">
        <lane id=":104639501_4_0" index="0" disallow="tram rail_urban rail rail_electric ship" speed="22.22" length="9.52" shape="206.43,589.31 198.61,594.74"/>
    </edge>
    <edge id=":104639501_5" function="internal">
        <lane id=":104639501_5_0" index="0" disallow="tram rail_urban rail rail_electric ship" speed="22.22" length="2.41" shape="206.43,589.31 204.94,589.33 204.13,588.89"/>
    </edge>
    <edge id=":104639501_10" function="internal">
        <lane id=":104639501_10_0" index="0" speed="22.22" length="2.41" shape="204.13,588.89 204.00,587.97 204.56,586.59"/>
    </edge>
    <edge id=":104639501_6" function="internal">
        <lane id=":104639501_6_0" index="0" disallow="tram rail_urban rail rail_electric ship" speed="22.22" length="9.55" shape="196.71,592.04 204.56,586.59"/>
    </edge>
    <edge id=":104639501_7" function="internal">
        <lane id=":104639501_7_0" index="0" disallow="tram rail_urban rail rail_electric ship" speed="22.22" length="5.27" shape="196.71,592.04 199.22,590.78 201.55,590.62 201.66,590.67"/>
    </edge>
    <edge id=":104639501_8" function="internal">
        <lane id=":104639501_8_0" index="0" disallow="tram rail_urban rail rail_electric ship" speed="22.22" length="2.41" shape="196.71,592.04 198.20,592.00 199.01,592.44"/>
    </edge>
    <edge id=":104639501_11" function="internal">
        <lane id=":104639501_11_0" index="0" speed="22.22" length="5.09" shape="201.66,590.67 203.70,591.57 205.68,593.63"/>
    </edge>
    <edge id=":104639501_12" function="internal">
        <lane id=":104639501_12_0" index="0" speed="22.22" length="2.41" shape="199.01,592.44 199.15,593.36 198.61,594.74"/>
    </edge>
    <edge id=":104639517_0" function="internal">
        <lane id=":104639517_0_0" index="0" disallow="tram rail_urban rail rail_electric ship" speed="22.22" length="4.82" shape="0.95,733.50 -0.54,733.54 -1.35,733.10 -1.49,732.19 -0.95,730.80"/>
    </edge>
    <edge id=":104706102_0" function="internal">
        <lane id=":104706102_0_0" index="0" disallow="tram rail_urban rail rail_electric ship" speed="18.05" length="5.10" shape="641.88,203.50 640.74,202.70 639.61,202.45 638.49,202.75 637.39,203.60"/>
    </edge>
    <edge id=":104706102_1" function="internal">
        <lane id=":104706102_1_0" index="0" disallow="tram rail_urban rail rail_electric ship" speed="13.89" length="9.56" shape="641.88,203.50 634.95,196.91"/>
    </edge>
    <edge id=":104706102_2" function="internal">
        <lane id=":104706102_2_0" index="0" disallow="tram rail_urban rail rail_electric ship" speed="18.05" length="10.36" shape="641.88,203.50 640.10,201.28 639.47,199.03 639.98,196.75 641.63,194.44"/>
    </edge>
    <edge id=":104706102_3" function="internal">
        <lane id=":104706102_3_0" index="0" disallow="tram rail_urban rail rail_electric ship" speed="13.89" length="4.82" shape="641.88,203.50 641.54,202.05 641.81,201.17 642.67,200.85 644.14,201.10"/>
    </edge>
    <edge id=":104706102_4" function="internal">
        <lane id=":104706102_4_0" index="0" disallow="tram rail_urban rail rail_electric ship" speed="18.05" length="5.01" shape="644.02,196.72 643.22,197.83 642.97,198.94 643.28,200.03 644.14,201.10"/>
    </edge>
    <edge id=":104706102_5" function="internal">
        <lane id=":104706102_5_0" index="0" disallow="tram rail_urban rail rail_electric ship" speed="22.22" length="9.56" shape="644.02,196.72 637.39,203.60"/>
    </edge>
    <edge id=":104706102_6" function="internal">
        <lane id=":104706102_6_0" index="0" disallow="tram rail_urban rail rail_electric ship" speed="18.05" length="5.32" shape="644.02,196.72 641.79,198.47 639.53,199.09 639.40,199.06"/>
    </edge>
    <edge id=":104706102_7" function="internal">
        <lane id=":104706102_7_0" index="0" disallow="tram rail_urban rail rail_electric ship" speed="22.22" length="2.41" shape="644.02,196.72 642.57,197.04 641.69,196.77"/>
    </edge>
    <edge id=":104706102_16" function="internal">
        <lane id=":104706102_16_0" index="0" speed="18.05" length="5.04" shape="639.40,199.06 637.25,198.57 634.95,196.91"/>
    </edge>
    <edge id=":104706102_17" function="internal">
        <lane id=":104706102_17_0" index="0" speed="22.22" length="2.41" shape="641.69,196.77 641.38,195.90 641.63,194.44"/>
    </edge>
    <edge id=":104706102_8" function="internal">
        <lane id=":104706102_8_0" index="0" disallow="tram rail_urban rail rail_electric ship" speed="18.05" length="5.01" shape="637.24,194.53 638.36,195.34 639.46,195.59 640.55,195.29 641.63,194.44"/>
    </edge>
    <edge id=":104706102_9" function="internal">
        <lane id=":104706102_9_0" index="0" disallow="tram rail_urban rail rail_electric ship" speed="13.89" length="9.52" shape="637.24,194.53 644.14,201.10"/>
    </edge>
    <edge id=":104706102_10" function="internal">
        <lane id=":104706102_10_0" index="0" disallow="tram rail_urban rail rail_electric ship" speed="18.05" length="10.35" shape="637.24,194.53 638.99,196.77 639.59,199.03 639.06,201.30 637.39,203.60"/>
    </edge>
    <edge id=":104706102_11" function="internal">
        <lane id=":104706102_11_0" index="0" disallow="tram rail_urban rail rail_electric ship" speed="13.89" length="4.82" shape="637.24,194.53 637.56,195.99 637.29,196.87 636.42,197.17 634.95,196.91"/>
    </edge>
    <edge id=":104706102_12" function="internal">
        <lane id=":104706102_12_0" index="0" disallow="tram rail_urban rail rail_electric ship" speed="18.05" length="5.01" shape="635.02,201.29 635.83,200.18 636.09,199.08 635.80,197.99 634.95,196.91"/>
    </edge>
    <edge id=":104706102_13" function="internal">
        <lane id=":104706102_13_0" index="0" disallow="tram rail_urban rail rail_electric ship" speed="22.22" length="9.52" shape="635.02,201.29 641.63,194.44"/>
    </edge>
    <edge id=":104706102_14" function="internal">
        <lane id=":104706102_14_0" index="0" disallow="tram rail_urban rail rail_electric ship" speed="18.05" length="5.18" shape="635.02,201.29 637.26,199.57 639.53,198.96"/>
    </edge>
    <edge id=":104706102_15" function="internal">
        <lane id=":104706102_15_0" index="0" disallow="tram rail_urban rail rail_electric ship" speed="22.22" length="2.41" shape="635.02,201.29 636.48,200.98 637.36,201.26"/>
    </edge>
    <edge id=":104706102_18" function="internal">
        <lane id=":104706102_18_0" index="0" speed="18.05" length="5.18" shape="639.53,198.96 641.82,199.47 644.14,201.10"/>
    </edge>
    <edge id=":104706102_19" function="internal">
        <lane id=":104706102_19_0" index="0" speed="22.22" length="2.41" shape="637.36,201.26 637.66,202.13 637.39,203.60"/>
    </edge>
    <edge id=":104706109_0" function="internal">
        <lane id=":104706109_0_0" index="0" disallow="tram rail_urban rail rail_electric ship" speed="13.89" length="5.03" shape="693.02,251.74 691.92,250.91 690.82,250.65 689.72,250.93 688.62,251.78"/>
    </edge>
    <edge id=":104706109_1" function="internal">
        <lane id=":104706109_1_0" index="0" disallow="tram rail_urban rail rail_electric ship" speed="13.89" length="6.25" shape="693.02,251.74 688.53,247.39"/>
    </edge>
    <edge id=":104706109_2" function="internal">
        <lane id=":104706109_2_0" index="0" disallow="tram rail_urban rail rail_electric ship" speed="13.89" length="2.41" shape="693.02,251.74 692.73,250.28 693.02,249.40"/>
    </edge>
    <edge id=":104706109_9" function="internal">
        <lane id=":104706109_9_0" index="0" speed="13.89" length="2.41" shape="693.02,249.40 693.89,249.11 695.35,249.40"/>
    </edge>
    <edge id=":104706109_3" function="internal">
        <lane id=":104706109_3_0" index="0" disallow="tram rail_urban rail rail_electric ship" speed="13.89" length="5.06" shape="695.25,244.95 694.46,246.06 694.21,247.17 694.51,248.29 695.35,249.40"/>
    </edge>
    <edge id=":104706109_4" function="internal">