<?xml version="1.0" encoding="UTF-8"?>
<!-- generated on 2018-06-27 13:26:54.311199 by $Id$ via randomTrips.py
  options: 
-->
<routes xmlns:xsi="http://www.w3.org/2001/XMLSchema-instance" xsi:noNamespaceSchemaLocation="http://sumo.dlr.de/xsd/routes_file.xsd">
    <vType id="passenger" speedDev="0.10" vClass="passenger">
    </vType>
    <trip id="veh0" depart="0.00" departLane="best" from="-331173871#1" to="-494284371#0" type="passenger"/>
    <trip id="veh1" depart="1.28" departLane="best" from="293149229#0" to="26321030#3" type="passenger"/>
    <trip id="veh2" depart="2.55" departLane="best" from="302256387" to="-11829415" type="passenger"/>
    <trip id="veh3" depart="3.83" departLane="best" from="-323751621#0" to="11839510#1" type="passenger"/>
    <trip id="veh4" depart="5.11" departLane="best" from="-11694981#1" to="-331173871#0" type="passenger"/>
    <trip id="veh6" depart="7.66" departLane="best" from="-323751621#0" to="11962498#2" type="passenger"/>
    <trip id="veh7" depart="8.94" departLane="best" from="294294299#0" to="-11690285#0" type="passenger"/>
    <trip id="veh8" depart="10.22" departLane="best" from="294294299#0" to="293149229#1" type="passenger"/>
    <trip id="veh9" depart="11.50" departLane="best" from="11690285#0" to="-302256387" type="passenger"/>
    <trip id="veh10" depart="12.77" departLane="best" from="494284371#0" to="11694981#2" type="passenger"/>
    <trip id="veh11" depart="14.05" departLane="best" from="-11808030" to="-11962498#0" type="passenger"/>
    <trip id="veh12" depart="15.33" departLane="best" from="294294299#0" to="293149229#6" type="passenger"/>
    <trip id="veh14" depart="17.88" departLane="best" from="294294299#2" to="26321021" type="passenger"/>
    <trip id="veh15" depart="19.16" departLane="best" from="294921218#0" to="11962498#1" type="passenger"/>
    <trip id="veh16" depart="20.44" departLane="best" from="11962498#2" to="-11747683#0" type="passenger"/>
    <trip id="veh17" depart="21.71" departLane="best" from="-323751621#1" to="11690285#1" type="passenger"/>
    <trip id="veh19" depart="24.27" departLane="best" from="11719980#1" to="-494284371#0" type="passenger"/>
    <trip id="veh21" depart="26.82" departLane="best" from="-11962498#2" to="293149229#5" type="passenger"/>
    <trip id="veh22" depart="28.10" departLane="best" from="11830680#3" to="26321030#3" type="passenger"/>
    <trip id="veh23" depart="29.38" departLane="best" from="294294299#4" to="293149229#9" type="passenger"/>
    <trip id="veh25" depart="31.93" departLane="best" from="-302256388" to="331173871#1" type="passenger"/>
    <trip id="veh26" depart="33.21" departLane="best" from="302256386" to="11694981#2" type="passenger"/>
    <trip id="veh28" depart="35.77" departLane="best" from="302256388" to="11830680#2" type="passenger"/>
    <trip id="veh29" depart="37.04" departLane="best" from="-331173871#1" to="-494284371#2" type="passenger"/>
    <trip id="veh30" depart="38.32" departLane="best" from="11734345#0" to="-494284371#0" type="passenger"/>
    <trip id="veh31" depart="39.60" departLane="best" from="-11808030" to="-11747683#0" type="passenger"/>
    <trip id="veh32" depart="40.88" departLane="best" from="-11828786#2" to="26321021" type="passenger"/>
    <trip id="veh33" depart="42.15" departLane="best" from="294294299#0" to="11828786#0" type="passenger"/>
    <trip id="veh34" depart="43.43" departLane="best" from="62343617" to="11947670" type="passenger"/>
    <trip id="veh35" depart="44.71" departLane="best" from="494284371#1" to="294921218#0" type="passenger"/>
    <trip id="veh36" depart="45.98" departLane="best" from="11957936#2" to="11947670" type="passenger"/>
    <trip id="veh37" depart="47.26" departLane="best" from="-331173871#1" to="26321030#0" type="passenger"/>
    <trip id="veh38" depart="48.54" departLane="best" from="11737884#0" to="331173871#1" type="passenger"/>
    <trip id="veh39" depart="49.82" departLane="best" from="302256386" to="-494284371#4" type="passenger"/>
    <trip id="veh40" depart="51.09" departLane="best" from="11808030" to="-302256387" type="passenger"/>
    <trip id="veh41" depart="52.37" departLane="best" from="302256387" to="302256386" type="passenger"/>
    <trip id="veh42" depart="53.65" departLane="best" from="11834136" to="-302256387" type="passenger"/>
    <trip id="veh43" depart="54.93" departLane="best" from="293149229#4" to="11947670" type="passenger"/>
    <trip id="veh45" depart="57.48" departLane="best" from="-11690285#0" to="11694981#2" type="passenger"/>
    <trip id="veh46" depart="58.76" departLane="best" from="-11694981#0" to="331173871#0" type="passenger"/>
    <trip id="veh47" depart="60.04" departLane="best" from="302256386" to="294294299#3" type="passenger"/>
    <trip id="veh48" depart="61.31" departLane="best" from="-494284371#2" to="-11808030" type="passenger"/>
    <trip id="veh49" depart="62.59" departLane="best" from="302256386" to="331173871#1" type="passenger"/>
    <trip id="veh50" depart="63.87" departLane="best" from="-11719980#1" to="293149229#9" type="passenger"/>
    <trip id="veh51" depart="65.14" departLane="best" from="293149229#5" to="-294921218#0" type="passenger"/>
    <trip id="veh53" depart="67.70" departLane="best" from="-331173871#1" to="302256386" type="passenger"/>
    <trip id="veh54" depart="68.98" departLane="best" from="11734345#4" to="-494284371#0" type="passenger"/>
    <trip id="veh55" depart="70.25" departLane="best" from="11830680#1" to="293149229#6" type="passenger"/>
    <trip id="veh56" depart="71.53" departLane="best" from="62343617" to="26321030#2" type="passenger"/>
    <trip id="veh57" depart="72.81" departLane="best" from="11737884#0" to="11947670" type="passenger"/>
    <trip id="veh58" depart="74.09" departLane="best" from="-11947670" to="-494284371#0" type="passenger"/>
    <trip id="veh59" depart="75.36" departLane="best" from="-11719980#1" to="26321021" type="passenger"/>
    <trip id="veh60" depart="76.64" departLane="best" from="11737884#2" to="293149229#9" type="passenger"/>
    <trip id="veh61" depart="77.92" departLane="best" from="294294299#0" to="-323751621#0" type="passenger"/>
    <trip id="veh62" depart="79.20" departLane="best" from="26321030#2" to="26321030#3" type="passenger"/>
    <trip id="veh63" depart="80.47" departLane="best" from="11734345#0" to="11694981#2" type="passenger"/>
    <trip id="veh64" depart="81.75" departLane="best" from="294921218#0" to="-494284371#2" type="passenger"/>
    <trip id="veh65" depart="83.03" departLane="best" from="-294921218#0" to="11830680#0" type="passenger"/>
    <trip id="veh66" depart="84.31" departLane="best" from="11737884#0" to="294921218#1" type="passenger"/>
    <trip id="veh67" depart="85.58" departLane="best" from="494284371#1" to="331173871#0" type="passenger"/>
    <trip id="veh68" depart="86.86" departLane="best" from="294294299#5" to="-302256387" type="passenger"/>
    <trip id="veh69" depart="88.14" departLane="best" from="11747683#0" to="-494284371#0" type="passenger"/>
    <trip id="veh70" depart="89.41" departLane="best" from="11734345#0" to="-11808030" type="passenger"/>
    <trip id="veh71" depart="90.69" departLane="best" from="11734345#0" to="494284371#3" type="passenger"/>
    <trip id="veh72" depart="91.97" departLane="best" from="-331173871#1" to="293149229#9" type="passenger"/>
    <trip id="veh73" depart="93.25" departLane="best" from="11737884#0" to="11828786#0" type="passenger"/>
    <trip id="veh74" depart="94.52" departLane="best" from="494284371#0" to="62343617" type="passenger"/>
    <trip id="veh75" depart="95.80" departLane="best" from="-11962498#0" to="11694981#0" type="passenger"/>
    <trip id="veh76" depart="97.08" departLane="best" from="494284371#1" to="11962498#1" type="passenger"/>
    <trip id="veh77" depart="98.36" departLane="best" from="11830680#1" to="293149229#8" type="passenger"/>
    <trip id="veh78" depart="99.63" departLane="best" from="-11694981#2" to="11962498#2" type="passenger"/>
    <trip id="veh79" depart="100.91" departLane="best" from="11808030" to="294294299#6" type="passenger"/>
    <trip id="veh80" depart="102.19" departLane="best" from="-11747683#0" to="-302256388" type="passenger"/>
    <trip id="veh81" depart="103.47" departLane="best" from="-323751621#1" to="-24850351#0" type="passenger"/>
    <trip id="veh82" depart="104.74" departLane="best" from="302256387" to="-494284371#2" type="passenger"/>
    <trip id="veh83" depart="106.02" departLane="best" from="11833510#1" to="26321021" type="passenger"/>
    <trip id="veh84" depart="107.30" departLane="best" from="11828786#2" to="331173871#1" type="passenger"/>
    <trip id="veh85" depart="108.57" departLane="best" from="-302256386" to="293149229#4" type="passenger"/>
    <trip id="veh87" depart="111.13" departLane="best" from="11957936#0" to="11694981#1" type="passenger"/>
    <trip id="veh88" depart="112.41" departLane="best" from="-494284371#4" to="293149229#9" type="passenger"/>
    <trip id="veh89" depart="113.68" departLane="best" from="-11719980#1" to="-494284371#0" type="passenger"/>
    <trip id="veh90" depart="114.96" departLane="best" from="302256387" to="302256388" type="passenger"/>
    <trip id="veh91" depart="116.24" departLane="best" from="11839510#0" to="494284371#4" type="passenger"/>
    <trip id="veh93" depart="118.79" departLane="best" from="294294299#0" to="11694981#1" type="passenger"/>
    <trip id="veh95" depart="121.35" departLane="best" from="-11947670" to="-11962498#3" type="passenger"/>
    <trip id="veh96" depart="122.63" departLane="best" from="24850351#0" to="-494284371#0" type="passenger"/>
    <trip id="veh98" depart="125.18" departLane="best" from="11747683#0" to="323751621#1" type="passenger"/>
    <trip id="veh99" depart="126.46" departLane="best" from="-11690285#0" to="293149229#9" type="passenger"/>
    <trip id="veh102" depart="130.29" departLane="best" from="302256387" to="11947670" type="passenger"/>
    <trip id="veh103" depart="131.57" departLane="best" from="-11947670" to="-294921218#0" type="passenger"/>
    <trip id="veh104" depart="132.84" departLane="best" from="-494284371#2" to="323751621#1" type="passenger"/>
    <trip id="veh105" depart="134.12" departLane="best" from="294294299#0" to="294921218#0" type="passenger"/>
    <trip id="veh106" depart="135.40" departLane="best" from="302256387" to="-494284371#0" type="passenger"/>
    <trip id="veh107" depart="136.68" departLane="best" from="-323751621#1" to="-11962498#1" type="passenger"/>
    <trip id="veh109" depart="139.23" departLane="best" from="294921218#0" to="494284371#2" type="passenger"/>
    <trip id="veh110" depart="140.51" departLane="best" from="294294299#0" to="302256388" type="passenger"/>
    <trip id="veh111" depart="141.79" departLane="best" from="11684003#0" to="331173871#1" type="passenger"/>
    <trip id="veh112" depart="143.06" departLane="best" from="294294299#0" to="294921218#1" type="passenger"/>
    <trip id="veh113" depart="144.34" departLane="best" from="294294299#0" to="-62343617" type="passenger"/>
    <trip id="veh115" depart="146.90" departLane="best" from="-323751621#1" to="293149230" type="passenger"/>
    <trip id="veh116" depart="148.17" departLane="best" from="11737884#0" to="11694981#1" type="passenger"/>
    <trip id="veh117" depart="149.45" departLane="best" from="294294299#0" to="-494284371#0" type="passenger"/>
    <trip id="veh118" depart="150.73" departLane="best" from="-11694981#1" to="-323751621#0" type="passenger"/>
    <trip id="veh119" depart="152.00" departLane="best" from="-62343617" to="294921218#1" type="passenger"/>
    <trip id="veh121" depart="154.56" departLane="best" from="494284371#3" to="11947670" type="passenger"/>
    <trip id="veh122" depart="155.84" departLane="best" from="494284371#0" to="-11962498#3" type="passenger"/>
    <trip id="veh123" depart="157.11" departLane="best" from="494284371#1" to="-302256387" type="passenger"/>
    <trip id="veh124" depart="158.39" departLane="best" from="494284371#0" to="-62343617" type="passenger"/>
    <trip id="veh125" depart="159.67" departLane="best" from="26321030#2" to="11694981#2" type="passenger"/>
    <trip id="veh126" depart="160.95" departLane="best" from="11734345#0" to="11962498#1" type="passenger"/>
    <trip id="veh127" depart="162.22" departLane="best" from="-323751621#1" to="293149229#3" type="passenger"/>
    <trip id="veh128" depart="163.50" departLane="best" from="-11690285#0" to="331173871#0" type="passenger"/>
    <trip id="veh129" depart="164.78" departLane="best" from="293149229#1" to="26321030#3" type="passenger"/>
    <trip id="veh130" depart="166.06" departLane="best" from="11719980#0" to="-11828786#1" type="passenger"/>
    <trip id="veh131" depart="167.33" departLane="best" from="26321030#0" to="11694981#1" type="passenger"/>
    <trip id="veh132" depart="168.61" departLane="best" from="11734345#0" to="11694981#0" type="passenger"/>
    <trip id="veh133" depart="169.89" departLane="best" from="-11947670" to="11828786#0" type="passenger"/>
    <trip id="veh134" depart="171.17" departLane="best" from="494284371#0" to="26321030#3" type="passenger"/>
    <trip id="veh135" depart="172.44" departLane="best" from="302256387" to="26321021" type="passenger"/>
    <trip id="veh136" depart="173.72" departLane="best" from="-494284371#1" to="11947670" type="passenger"/>
    <trip id="veh138" depart="176.27" departLane="best" from="11737884#0" to="-494284371#0" type="passenger"/>
    <trip id="veh139" depart="177.55" departLane="best" from="11737884#2" to="323751621#1" type="passenger"/>
    <trip id="veh140" depart="178.83" departLane="best" from="294294299#0" to="-302256387" type="passenger"/>
    <trip id="veh141" depart="180.11" departLane="best" from="-11747683#1" to="11947670" type="passenger"/>
    <trip id="veh142" depart="181.38" departLane="best" from="11957936#0" to="-494284371#0" type="passenger"/>
    <trip id="veh143" depart="182.66" departLane="best" from="-323751621#1" to="11833510#1" type="passenger"/>
    <trip id="veh144" depart="183.94" departLane="best" from="-294921218#0" to="293149229#1" type="passenger"/>
    <trip id="veh146" depart="186.49" departLane="best" from="293149229#2" to="293149229#9" type="passenger"/>
    <trip id="veh147" depart="187.77" departLane="best" from="-323751621#1" to="294294299#6" type="passenger"/>
    <trip id="veh148" depart="189.05" departLane="best" from="11737884#0" to="293149230" type="passenger"/>
    <trip id="veh150" depart="191.60" departLane="best" from="11833510#1" to="331173871#1" type="passenger"/>
    <trip id="veh151" depart="192.88" departLane="best" from="302256387" to="26321021" type="passenger"/>
    <trip id="veh152" depart="194.16" departLane="best" from="294294299#2" to="11947670" type="passenger"/>
    <trip id="veh153" depart="195.43" departLane="best" from="302256387" to="293149229#8" type="passenger"/>
    <trip id="veh154" depart="196.71" departLane="best" from="11737884#2" to="-494284371#4" type="passenger"/>
    <trip id="veh155" depart="197.99" departLane="best" from="293149229#5" to="11947670" type="passenger"/>
    <trip id="veh156" depart="199.27" departLane="best" from="-331173871#1" to="11694981#2" type="passenger"/>
    <trip id="veh157" depart="200.54" departLane="best" from="11830680#1" to="-294921218#1" type="passenger"/>
    <trip id="veh158" depart="201.82" departLane="best" from="-323751621#1" to="293149229#0" type="passenger"/>
    <trip id="veh159" depart="203.10" departLane="best" from="11962498#3" to="-11828786#0" type="passenger"/>
    <trip id="veh160" depart="204.38" departLane="best" from="11734345#0" to="11947670" type="passenger"/>
    <trip id="veh161" depart="205.65" departLane="best" from="11734345#3" to="323751621#1" type="passenger"/>
    <trip id="veh162" depart="206.93" departLane="best" from="11833510#0" to="293149229#1" type="passenger"/>
    <trip id="veh163" depart="208.21" departLane="best" from="294294299#6" to="293149229#9" type="passenger"/>
    <trip id="veh164" depart="209.49" departLane="best" from="11734345#0" to="-11690285#0" type="passenger"/>
    <trip id="veh165" depart="210.76" departLane="best" from="294294299#6" to="331173871#1" type="passenger"/>
    <trip id="veh166" depart="212.04" departLane="best" from="11734345#3" to="293149229#8" type="passenger"/>
    <trip id="veh167" depart="213.32" departLane="best" from="11690285#0" to="26321030#3" type="passenger"/>
    <trip id="veh168" depart="214.60" departLane="best" from="11734345#0" to="-302256387" type="passenger"/>
    <trip id="veh169" depart="215.87" departLane="best" from="11737884#0" to="-294921218#0" type="passenger"/>
    <trip id="veh170" depart="217.15" departLane="best" from="11839510#1" to="-11694981#1" type="passenger"/>
    <trip id="veh171" depart="218.43" departLane="best" from="11734345#0" to="11957936#2" type="passenger"/>
    <trip id="veh172" depart="219.70" departLane="best" from="-11694981#2" to="26321030#0" type="passenger"/>
    <trip id="veh173" depart="220.98" departLane="best" from="-11947670" to="11830680#2" type="passenger"/>
    <trip id="veh174" depart="222.26" departLane="best" from="-11694981#2" to="11734345#5" type="passenger"/>
    <trip id="veh175" depart="223.54" departLane="best" from="-302256388" to="11694981#2" type="passenger"/>
    <trip id="veh176" depart="224.81" departLane="best" from="-323751621#1" to="-11828786#2" type="passenger"/>
    <trip id="veh177" depart="226.09" departLane="best" from="-11694981#0" to="11947670" type="passenger"/>
    <trip id="veh178" depart="227.37" departLane="best" from="494284371#0" to="-331173871#0" type="passenger"/>
    <trip id="veh179" depart="228.65" departLane="best" from="-11694981#1" to="-302256387" type="passenger"/>
    <trip id="veh180" depart="229.92" departLane="best" from="-11947670" to="26321030#3" type="passenger"/>
    <trip id="veh181" depart="231.20" departLane="best" from="11962498#2" to="293149229#9" type="passenger"/>
    <trip id="veh182" depart="232.48" departLane="best" from="-11962498#2" to="26321021" type="passenger"/>
    <trip id="veh183" depart="233.76" departLane="best" from="294294299#0" to="331173871#1" type="passenger"/>
    <trip id="veh184" depart="235.03" departLane="best" from="11962498#0" to="26321021" type="passenger"/>
    <trip id="veh185" depart="236.31" departLane="best" from="-11828786#1" to="293149229#9" type="passenger"/>
    <trip id="veh186" depart="237.59" departLane="best" from="-11947670" to="494284371#3" type="passenger"/>
    <trip id="veh189" depart="241.42" departLane="best" from="-11828786#1" to="331173871#1" type="passenger"/>
    <trip id="veh191" depart="243.97" departLane="best" from="11962498#3" to="11828786#2" type="passenger"/>
    <trip id="veh192" depart="245.25" departLane="best" from="293149229#0" to="494284371#1" type="passenger"/>
    <trip id="veh193" depart="246.53" departLane="best" from="-331173871#1" to="293149230" type="passenger"/>
    <trip id="veh194" depart="247.81" departLane="best" from="302256387" to="-494284371#2" type="passenger"/>
    <trip id="veh195" depart="249.08" departLane="best" from="11737884#0" to="26321021" type="passenger"/>
    <trip id="veh197" depart="251.64" departLane="best" from="294294299#5" to="-302256388" type="passenger"/>
    <trip id="veh198" depart="252.92" departLane="best" from="-302256388" to="293149230" type="passenger"/>
    <trip id="veh199" depart="254.19" departLane="best" from="11690285#0" to="302256388" type="passenger"/>
    <trip id="veh200" depart="255.47" departLane="best" from="-11690285#1" to="331173871#1" type="passenger"/>
    <trip id="veh201" depart="256.75" departLane="best" from="11747683#1" to="293149230" type="passenger"/>
    <trip id="veh202" depart="258.03" departLane="best" from="-11808030" to="-494284371#0" type="passenger"/>
    <trip id="veh203" depart="259.30" departLane="best" from="11962498#1" to="11694981#2" type="passenger"/>
    <trip id="veh204" depart="260.58" departLane="best" from="11833510#0" to="11833510#1" type="passenger"/>
    <trip id="veh205" depart="261.86" departLane="best" from="11830680#0" to="11828786#1" type="passenger"/>
    <trip id="veh206" depart="263.13" departLane="best" from="293149229#2" to="11694981#2" type="passenger"/>
    <trip id="veh207" depart="264.41" departLane="best" from="-323751621#1" to="-24850351#0" type="passenger"/>
    <trip id="veh208" depart="265.69" departLane="best" from="-294921218#0" to="-24850351#0" type="passenger"/>
    <trip id="veh209" depart="266.97" departLane="best" from="11830680#0" to="293149229#9" type="passenger"/>
    <trip id="veh210" depart="268.24" departLane="best" from="-24850351#0" to="-494284371#0" type="passenger"/>
    <trip id="veh211" depart="269.52" departLane="best" from="494284371#2" to="11947670" type="passenger"/>
    <trip id="veh212" depart="270.80" departLane="best" from="-294921218#0" to="-494284371#0" type="passenger"/>
    <trip id="veh213" depart="272.08" departLane="best" from="-11962498#3" to="-11694981#0" type="passenger"/>
    <trip id="veh215" depart="274.63" departLane="best" from="11962498#1" to="-294921218#0" type="passenger"/>
    <trip id="veh216" depart="275.91" departLane="best" from="294921218#1" to="11834136" type="passenger"/>
    <trip id="veh217" depart="277.19" departLane="best" from="302256386" to="11962498#0" type="passenger"/>
    <trip id="veh218" depart="278.46" departLane="best" from="11737884#0" to="11829415" type="passenger"/>
    <trip id="veh219" depart="279.74" departLane="best" from="-24850351#0" to="-11747683#1" type="passenger"/>
    <trip id="veh220" depart="281.02" departLane="best" from="294294299#0" to="11747683#0" type="passenger"/>
    <trip id="veh221" depart="282.29" departLane="best" from="-11747683#0" to="26321021" type="passenger"/>
    <trip id="veh222" depart="283.57" departLane="best" from="-11694981#2" to="-302256387" type="passenger"/>
    <trip id="veh223" depart="284.85" departLane="best" from="11833510#0" to="11694981#1" type="passenger"/>
    <trip id="veh224" depart="286.13" departLane="best" from="293149229#4" to="26321021" type="passenger"/>
    <trip id="veh226" depart="288.68" departLane="best" from="11828786#2" to="11830680#0" type="passenger"/>
    <trip id="veh227" depart="289.96" departLane="best" from="11737884#0" to="294921218#0" type="passenger"/>
    <trip id="veh228" depart="291.24" departLane="best" from="494284371#4" to="11694981#1" type="passenger"/>
    <trip id="veh229" depart="292.51" departLane="best" from="11839510#1" to="26321021" type="passenger"/>
    <trip id="veh230" depart="293.79" departLane="best" from="293149229#1" to="331173871#1" type="passenger"/>
    <trip id="veh231" depart="295.07" departLane="best" from="-302256386" to="-494284371#0" type="passenger"/>
    <trip id="veh233" depart="297.62" departLane="best" from="-11962498#2" to="-11828786#1" type="passenger"/>
    <trip id="veh234" depart="298.90" departLane="best" from="-323751621#1" to="293149229#2" type="passenger"/>
    <trip id="veh237" depart="302.73" departLane="best" from="11734345#4" to="11947670" type="passenger"/>
    <trip id="veh239" depart="305.29" departLane="best" from="-11962498#1" to="11694981#2" type="passenger"/>
    <trip id="veh240" depart="306.56" departLane="best" from="-331173871#1" to="-24850351#0" type="passenger"/>
    <trip id="veh241" depart="307.84" departLane="best" from="494284371#0" to="11839510#1" type="passenger"/>
    <trip id="veh242" depart="309.12" departLane="best" from="-11808030" to="331173871#1" type="passenger"/>
    <trip id="veh243" depart="310.40" departLane="best" from="494284371#0" to="62343617" type="passenger"/>
    <trip id="veh244" depart="311.67" departLane="best" from="-11694981#2" to="293149229#9" type="passenger"/>
    <trip id="veh245" depart="312.95" departLane="best" from="11737884#2" to="26321030#2" type="passenger"/>
    <trip id="veh246" depart="314.23" departLane="best" from="11690285#1" to="11694981#2" type="passenger"/>
    <trip id="veh248" depart="316.78" departLane="best" from="11737884#0" to="11694981#2" type="passenger"/>
    <trip id="veh249" depart="318.06" departLane="best" from="-62343617" to="494284371#1" type="passenger"/>
    <trip id="veh250" depart="319.34" departLane="best" from="11734345#0" to="11947670" type="passenger"/>
    <trip id="veh251" depart="320.62" departLane="best" from="11830680#1" to="11808030" type="passenger"/>
    <trip id="veh252" depart="321.89" departLane="best" from="293149229#3" to="26321021" type="passenger"/>
    <trip id="veh253" depart="323.17" departLane="best" from="293149229#4" to="-494284371#0" type="passenger"/>
    <trip id="veh254" depart="324.45" departLane="best" from="11737884#0" to="293149229#1" type="passenger"/>
    <trip id="veh255" depart="325.72" departLane="best" from="-11947670" to="494284371#2" type="passenger"/>
    <trip id="veh256" depart="327.00" departLane="best" from="11834136" to="-494284371#1" type="passenger"/>
    <trip id="veh258" depart="329.56" departLane="best" from="494284371#4" to="323751621#1" type="passenger"/>
    <trip id="veh259" depart="330.83" departLane="best" from="11737884#0" to="-11962498#3" type="passenger"/>
    <trip id="veh260" depart="332.11" departLane="best" from="294294299#2" to="11839510#0" type="passenger"/>
    <trip id="veh261" depart="333.39" departLane="best" from="-331173871#1" to="294294299#4" type="passenger"/>
    <trip id="veh262" depart="334.67" departLane="best" from="323751621#0" to="11839510#2" type="passenger"/>
    <trip id="veh263" depart="335.94" departLane="best" from="302256387" to="294921218#1" type="passenger"/>
    <trip id="veh264" depart="337.22" departLane="best" from="-331173871#1" to="293149230" type="passenger"/>
    <trip id="veh265" depart="338.50" departLane="best" from="-331173871#1" to="11694981#0" type="passenger"/>
    <trip id="veh266" depart="339.78" departLane="best" from="11833510#0" to="62343617" type="passenger"/>
    <trip id="veh267" depart="341.05" departLane="best" from="11747683#0" to="-302256387" type="passenger"/>
    <trip id="veh268" depart="342.33" departLane="best" from="11830680#3" to="11947670" type="passenger"/>
    <trip id="veh269" depart="343.61" departLane="best" from="11737884#0" to="11694981#2" type="passenger"/>
    <trip id="veh270" depart="344.89" departLane="best" from="-294921218#0" to="293149229#1" type="passenger"/>
    <trip id="veh273" depart="348.72" departLane="best" from="494284371#3" to="11839510#0" type="passenger"/>
    <trip id="veh274" depart="349.99" departLane="best" from="-11694981#2" to="11839510#1" type="passenger"/>
    <trip id="veh275" depart="351.27" departLane="best" from="11833510#0" to="302256386" type="passenger"/>
    <trip id="veh276" depart="352.55" departLane="best" from="11829415" to="11830680#1" type="passenger"/>
    <trip id="veh277" depart="353.83" departLane="best" from="26321030#0" to="11808030" type="passenger"/>
    <trip id="veh279" depart="356.38" departLane="best" from="11737884#0" to="494284371#1" type="passenger"/>
    <trip id="veh281" depart="358.94" departLane="best" from="294294299#5" to="294921218#0" type="passenger"/>
    <trip id="veh282" depart="360.21" departLane="best" from="11734345#0" to="11694981#2" type="passenger"/>
    <trip id="veh283" depart="361.49" departLane="best" from="26321030#0" to="293149229#9" type="passenger"/>
    <trip id="veh285" depart="364.05" departLane="best" from="-11719980#1" to="26321021" type="passenger"/>
    <trip id="veh286" depart="365.32" departLane="best" from="323751621#0" to="62343617" type="passenger"/>
    <trip id="veh287" depart="366.60" departLane="best" from="293149229#2" to="11828786#2" type="passenger"/>
    <trip id="veh288" depart="367.88" departLane="best" from="-11828786#0" to="26321021" type="passenger"/>
    <trip id="veh289" depart="369.15" departLane="best" from="11962498#1" to="323751621#1" type="passenger"/>
    <trip id="veh290" depart="370.43" departLane="best" from="-11694981#2" to="293149230" type="passenger"/>
    <trip id="veh291" depart="371.71" departLane="best" from="-331173871#1" to="11734345#4" type="passenger"/>
    <trip id="veh292" depart="372.99" departLane="best" from="11833510#0" to="293149230" type="passenger"/>
    <trip id="veh293" depart="374.26" departLane="best" from="-11962498#2" to="-11828786#2" type="passenger"/>
    <trip id="veh294" depart="375.54" departLane="best" from="294921218#1" to="26321021" type="passenger"/>
    <trip id="veh295" depart="376.82" departLane="best" from="-11947670" to="11830680#2" type="passenger"/>
    <trip id="veh296" depart="378.10" departLane="best" from="-323751621#1" to="-494284371#3" type="passenger"/>
    <trip id="veh297" depart="379.37" departLane="best" from="-11690285#1" to="293149230" type="passenger"/>
    <trip id="veh298" depart="380.65" departLane="best" from="302256387" to="26321030#3" type="passenger"/>
    <trip id="veh299" depart="381.93" departLane="best" from="-11962498#0" to="11829415" type="passenger"/>
    <trip id="veh300" depart="383.21" departLane="best" from="-323751621#1" to="294294299#5" type="passenger"/>
    <trip id="veh302" depart="385.76" departLane="best" from="11737884#3" to="-494284371#1" type="passenger"/>
    <trip id="veh303" depart="387.04" departLane="best" from="11833510#0" to="11962498#0" type="passenger"/>
    <trip id="veh304" depart="388.32" departLane="best" from="494284371#4" to="11694981#0" type="passenger"/>
    <trip id="veh305" depart="389.59" departLane="best" from="11962498#0" to="293149229#8" type="passenger"/>
    <trip id="veh306" depart="390.87" departLane="best" from="-11694981#2" to="26321021" type="passenger"/>
    <trip id="veh307" depart="392.15" departLane="best" from="11808030" to="323751621#1" type="passenger"/>
    <trip id="veh308" depart="393.42" departLane="best" from="-331173871#1" to="293149230" type="passenger"/>
    <trip id="veh311" depart="397.26" departLane="best" from="11839510#2" to="323751621#1" type="passenger"/>