<routes><vType accel="2" decel="4.5" id="Car" length="5.0" maxSpeed="100.0" sigma="0.5" /><route edges="e_2_1_2_2 e_2_2_2_3" id="route_sn_2" /><route edges="e_2_3_2_2 e_2_2_2_1" id="route_ns_2" /><route edges="e_3_1_3_2 e_3_2_3_3" id="route_sn_3" /><route edges="e_3_3_3_2 e_3_2_3_1" id="route_ns_3" /><route edges="e_4_1_4_2 e_4_2_4_3" id="route_sn_4" /><route edges="e_4_3_4_2 e_4_2_4_1" id="route_ns_4" /><route edges="e_5_1_5_2 e_5_2_5_3" id="route_sn_5" /><route edges="e_5_3_5_2 e_5_2_5_1" id="route_ns_5" /><route edges="e_6_1_6_2 e_6_2_6_3" id="route_sn_6" /><route edges="e_6_3_6_2 e_6_2_6_1" id="route_ns_6" /><route edges="e_1_2_2_2 e_2_2_3_2 e_3_2_4_2 e_4_2_5_2 e_5_2_6_2 e_6_2_7_2" id="route_we_2" /><route edges="e_7_2_6_2 e_6_2_5_2 e_5_2_4_2 e_4_2_3_2 e_3_2_2_2 e_2_2_1_2" id="route_ew_2" /><flow begin="0" depart="1" end="3600" id="flow_ns_2" probability="0.019" route="route_ns_2" type="Car" /><flow begin="0" depart="1" end="3600" id="flow_ns_3" probability="0.019" route="route_ns_3" type="Car" /><flow begin="0" depart="1" end="3600" id="flow_ns_4" probability="0.019" route="route_ns_4" type="Car" /><flow begin="0" depart="1" end="3600" id="flow_ns_5" probability="0.019" route="route_ns_5" type="Car" /><flow begin="0" depart="1" end="3600" id="flow_ns_6" probability="0.019" route="route_ns_6" type="Car" /><flow begin="0" depart="1" end="3600" id="flow_sn_2" probability="0.02" route="route_sn_2" type="Car" /><flow begin="0" depart="1" end="3600" id="flow_sn_3" probability="0.02" route="route_sn_3" type="Car" /><flow begin="0" depart="1" end="3600" id="flow_sn_4" probability="0.02" route="route_sn_4" type="Car" /><flow begin="0" depart="1" end="3600" id="flow_sn_5" probability="0.02" route="route_sn_5" type="Car" /><flow begin="0" depart="1" end="3600" id="flow_sn_6" probability="0.02" route="route_sn_6" type="Car" /><flow begin="0" depart="1" end="3600" id="flow_ew_2" probability="0.021" route="route_ew_2" type="Car" /><flow begin="0" depart="1" end="3600" id="flow_we_2" probability="0.02" route="route_we_2" type="Car" /></routes>