<?xml version="1.0" encoding="UTF-8"?>

<!-- generated on 01/20/18 16:02:48 by SUMO netconvert Version 0.29.0
<?xml version="1.0" encoding="UTF-8"?>

<configuration xmlns:xsi="http://www.w3.org/2001/XMLSchema-instance" xsi:noNamespaceSchemaLocation="http://sumo.dlr.de/xsd/netconvertConfiguration.xsd">

    <input>
        <node-files value="traffic.nod.xml"/>
        <edge-files value="traffic.edg.xml"/>
        <type-files value="traffic.typ.xml"/>
    </input>

    <output>
        <output-file value="traffic.net.xml"/>
    </output>

</configuration>
-->

<net version="0.27" xmlns:xsi="http://www.w3.org/2001/XMLSchema-instance" xsi:noNamespaceSchemaLocation="http://sumo.dlr.de/xsd/net_file.xsd">

    <location netOffset="375.00,125.00" convBoundary="0.00,0.00,750.00,250.00" origBoundary="-375.00,-125.00,375.00,125.00" projParameter="!"/>

    <type id="d" priority="3" numLanes="1" speed="11.11"/>
    <type id="m" priority="3" numLanes="2" speed="11.11"/>

    <edge id=":(1,2)_0" function="internal">
        <lane id=":(1,2)_0_0" index="0" speed="11.11" length="4.82" shape="0.00,126.65 -1.24,125.83 -1.65,125.00 -1.24,124.17 0.00,123.35"/>
    </edge>
    <edge id=":(2,1)_0" function="internal">
        <lane id=":(2,1)_0_0" index="0" speed="11.11" length="4.82" shape="123.35,0.00 124.18,-1.24 125.00,-1.65 125.83,-1.24 126.65,0.00"/>
    </edge>
    <edge id=":(2,2)_0" function="internal">
        <lane id=":(2,2)_0_0" index="0" speed="11.11" length="5.00" shape="123.35,129.75 123.16,128.39 122.57,127.43 121.61,126.84 120.25,126.65"/>
    </edge>
    <edge id=":(2,2)_1" function="internal">
        <lane id=":(2,2)_1_0" index="0" speed="11.11" length="9.50" shape="123.35,129.75 123.35,120.25"/>
    </edge>
    <edge id=":(2,2)_2" function="internal">
        <lane id=":(2,2)_2_0" index="0" speed="11.11" length="5.28" shape="123.35,129.75 123.75,126.95 124.95,124.95 125.05,124.89"/>
    </edge>
    <edge id=":(2,2)_3" function="internal">
        <lane id=":(2,2)_3_0" index="0" speed="11.11" length="2.41" shape="123.35,129.75 124.18,128.51 125.00,128.10"/>
    </edge>
    <edge id=":(2,2)_16" function="internal">
        <lane id=":(2,2)_16_0" index="0" speed="11.11" length="5.04" shape="125.05,124.89 126.95,123.75 129.75,123.35"/>
    </edge>
    <edge id=":(2,2)_17" function="internal">
        <lane id=":(2,2)_17_0" index="0" speed="11.11" length="2.41" shape="125.00,128.10 125.83,128.51 126.65,129.75"/>
    </edge>
    <edge id=":(2,2)_4" function="internal">
        <lane id=":(2,2)_4_0" index="0" speed="11.11" length="5.00" shape="129.75,126.65 128.39,126.84 127.43,127.43 126.84,128.39 126.65,129.75"/>
    </edge>
    <edge id=":(2,2)_5" function="internal">
        <lane id=":(2,2)_5_0" index="0" speed="11.11" length="9.50" shape="129.75,126.65 120.25,126.65"/>
    </edge>
    <edge id=":(2,2)_6" function="internal">
        <lane id=":(2,2)_6_0" index="0" speed="11.11" length="5.28" shape="129.75,126.65 126.95,126.25 124.95,125.05 124.89,124.95"/>
    </edge>
    <edge id=":(2,2)_7" function="internal">
        <lane id=":(2,2)_7_0" index="0" speed="11.11" length="2.41" shape="129.75,126.65 128.51,125.83 128.10,125.00"/>
    </edge>
    <edge id=":(2,2)_18" function="internal">
        <lane id=":(2,2)_18_0" index="0" speed="11.11" length="5.04" shape="124.89,124.95 123.75,123.05 123.35,120.25"/>
    </edge>
    <edge id=":(2,2)_19" function="internal">
        <lane id=":(2,2)_19_0" index="0" speed="11.11" length="2.41" shape="128.10,125.00 128.51,124.17 129.75,123.35"/>
    </edge>
    <edge id=":(2,2)_8" function="internal">
        <lane id=":(2,2)_8_0" index="0" speed="11.11" length="5.00" shape="126.65,120.25 126.84,121.61 127.43,122.57 128.39,123.16 129.75,123.35"/>
    </edge>
    <edge id=":(2,2)_9" function="internal">
        <lane id=":(2,2)_9_0" index="0" speed="11.11" length="9.50" shape="126.65,120.25 126.65,129.75"/>
    </edge>
    <edge id=":(2,2)_10" function="internal">
        <lane id=":(2,2)_10_0" index="0" speed="11.11" length="5.28" shape="126.65,120.25 126.25,123.05 125.05,125.05 124.95,125.11"/>
    </edge>
    <edge id=":(2,2)_11" function="internal">
        <lane id=":(2,2)_11_0" index="0" speed="11.11" length="2.41" shape="126.65,120.25 125.83,121.49 125.00,121.90"/>
    </edge>
    <edge id=":(2,2)_20" function="internal">
        <lane id=":(2,2)_20_0" index="0" speed="11.11" length="5.04" shape="124.95,125.11 123.05,126.25 120.25,126.65"/>
    </edge>
    <edge id=":(2,2)_21" function="internal">
        <lane id=":(2,2)_21_0" index="0" speed="11.11" length="2.41" shape="125.00,121.90 124.17,121.49 123.35,120.25"/>
    </edge>
    <edge id=":(2,2)_12" function="internal">
        <lane id=":(2,2)_12_0" index="0" speed="11.11" length="5.00" shape="120.25,123.35 121.61,123.16 122.57,122.57 123.16,121.61 123.35,120.25"/>
    </edge>
    <edge id=":(2,2)_13" function="internal">
        <lane id=":(2,2)_13_0" index="0" speed="11.11" length="9.50" shape="120.25,123.35 129.75,123.35"/>
    </edge>
    <edge id=":(2,2)_14" function="internal">
        <lane id=":(2,2)_14_0" index="0" speed="11.11" length="5.28" shape="120.25,123.35 123.05,123.75 125.05,124.95 125.11,125.05"/>
    </edge>
    <edge id=":(2,2)_15" function="internal">
        <lane id=":(2,2)_15_0" index="0" speed="11.11" length="2.41" shape="120.25,123.35 121.49,124.18 121.90,125.00"/>
    </edge>
    <edge id=":(2,2)_22" function="internal">
        <lane id=":(2,2)_22_0" index="0" speed="11.11" length="5.04" shape="125.11,125.05 126.25,126.95 126.65,129.75"/>
    </edge>
    <edge id=":(2,2)_23" function="internal">
        <lane id=":(2,2)_23_0" index="0" speed="11.11" length="2.41" shape="121.90,125.00 121.49,125.83 120.25,126.65"/>
    </edge>
    <edge id=":(2,3)_0" function="internal">
        <lane id=":(2,3)_0_0" index="0" speed="11.11" length="4.82" shape="126.65,250.00 125.83,251.24 125.00,251.65 124.17,251.24 123.35,250.00"/>
    </edge>
    <edge id=":(3,1)_0" function="internal">
        <lane id=":(3,1)_0_0" index="0" speed="11.11" length="4.82" shape="248.35,0.00 249.18,-1.24 250.00,-1.65 250.82,-1.24 251.65,0.00"/>
    </edge>
    <edge id=":(3,2)_0" function="internal">
        <lane id=":(3,2)_0_0" index="0" speed="11.11" length="5.00" shape="248.35,129.75 248.16,128.39 247.57,127.43 246.61,126.84 245.25,126.65"/>
    </edge>
    <edge id=":(3,2)_1" function="internal">
        <lane id=":(3,2)_1_0" index="0" speed="11.11" length="9.50" shape="248.35,129.75 248.35,120.25"/>
    </edge>
    <edge id=":(3,2)_2" function="internal">
        <lane id=":(3,2)_2_0" index="0" speed="11.11" length="5.28" shape="248.35,129.75 248.75,126.95 249.95,124.95 250.05,124.89"/>
    </edge>
    <edge id=":(3,2)_3" function="internal">
        <lane id=":(3,2)_3_0" index="0" speed="11.11" length="2.41" shape="248.35,129.75 249.18,128.51 250.00,128.10"/>
    </edge>
    <edge id=":(3,2)_16" function="internal">
        <lane id=":(3,2)_16_0" index="0" speed="11.11" length="5.04" shape="250.05,124.89 251.95,123.75 254.75,123.35"/>
    </edge>
    <edge id=":(3,2)_17" function="internal">
        <lane id=":(3,2)_17_0" index="0" speed="11.11" length="2.41" shape="250.00,128.10 250.82,128.51 251.65,129.75"/>
    </edge>
    <edge id=":(3,2)_4" function="internal">
        <lane id=":(3,2)_4_0" index="0" speed="11.11" length="5.00" shape="254.75,126.65 253.39,126.84 252.42,127.43 251.84,128.39 251.65,129.75"/>
    </edge>
    <edge id=":(3,2)_5" function="internal">
        <lane id=":(3,2)_5_0" index="0" speed="11.11" length="9.50" shape="254.75,126.65 245.25,126.65"/>
    </edge>
    <edge id=":(3,2)_6" function="internal">
        <lane id=":(3,2)_6_0" index="0" speed="11.11" length="5.28" shape="254.75,126.65 251.95,126.25 249.95,125.05 249.89,124.95"/>
    </edge>
    <edge id=":(3,2)_7" function="internal">
        <lane id=":(3,2)_7_0" index="0" speed="11.11" length="2.41" shape="254.75,126.65 253.51,125.83 253.10,125.00"/>
    </edge>
    <edge id=":(3,2)_18" function="internal">
        <lane id=":(3,2)_18_0" index="0" speed="11.11" length="5.04" shape="249.89,124.95 248.75,123.05 248.35,120.25"/>
    </edge>
    <edge id=":(3,2)_19" function="internal">
        <lane id=":(3,2)_19_0" index="0" speed="11.11" length="2.41" shape="253.10,125.00 253.51,124.17 254.75,123.35"/>
    </edge>
    <edge id=":(3,2)_8" function="internal">
        <lane id=":(3,2)_8_0" index="0" speed="11.11" length="5.00" shape="251.65,120.25 251.84,121.61 252.43,122.57 253.39,123.16 254.75,123.35"/>
    </edge>
    <edge id=":(3,2)_9" function="internal">
        <lane id=":(3,2)_9_0" index="0" speed="11.11" length="9.50" shape="251.65,120.25 251.65,129.75"/>
    </edge>
    <edge id=":(3,2)_10" function="internal">
        <lane id=":(3,2)_10_0" index="0" speed="11.11" length="5.28" shape="251.65,120.25 251.25,123.05 250.05,125.05 249.95,125.11"/>
    </edge>
    <edge id=":(3,2)_11" function="internal">
        <lane id=":(3,2)_11_0" index="0" speed="11.11" length="2.41" shape="251.65,120.25 250.82,121.49 250.00,121.90"/>
    </edge>
    <edge id=":(3,2)_20" function="internal">
        <lane id=":(3,2)_20_0" index="0" speed="11.11" length="5.04" shape="249.95,125.11 248.05,126.25 245.25,126.65"/>
    </edge>
    <edge id=":(3,2)_21" function="internal">
        <lane id=":(3,2)_21_0" index="0" speed="11.11" length="2.41" shape="250.00,121.90 249.18,121.49 248.35,120.25"/>
    </edge>
    <edge id=":(3,2)_12" function="internal">
        <lane id=":(3,2)_12_0" index="0" speed="11.11" length="5.00" shape="245.25,123.35 246.61,123.16 247.58,122.57 248.16,121.61 248.35,120.25"/>
    </edge>
    <edge id=":(3,2)_13" function="internal">
        <lane id=":(3,2)_13_0" index="0" speed="11.11" length="9.50" shape="245.25,123.35 254.75,123.35"/>
    </edge>
    <edge id=":(3,2)_14" function="internal">
        <lane id=":(3,2)_14_0" index="0" speed="11.11" length="5.28" shape="245.25,123.35 248.05,123.75 250.05,124.95 250.11,125.05"/>
    </edge>
    <edge id=":(3,2)_15" function="internal">
        <lane id=":(3,2)_15_0" index="0" speed="11.11" length="2.41" shape="245.25,123.35 246.49,124.18 246.90,125.00"/>
    </edge>
    <edge id=":(3,2)_22" function="internal">
        <lane id=":(3,2)_22_0" index="0" speed="11.11" length="5.04" shape="250.11,125.05 251.25,126.95 251.65,129.75"/>
    </edge>
    <edge id=":(3,2)_23" function="internal">
        <lane id=":(3,2)_23_0" index="0" speed="11.11" length="2.41" shape="246.90,125.00 246.49,125.83 245.25,126.65"/>
    </edge>
    <edge id=":(3,3)_0" function="internal">
        <lane id=":(3,3)_0_0" index="0" speed="11.11" length="4.82" shape="251.65,250.00 250.82,251.24 250.00,251.65 249.18,251.24 248.35,250.00"/>
    </edge>
    <edge id=":(4,1)_0" function="internal">
        <lane id=":(4,1)_0_0" index="0" speed="11.11" length="4.82" shape="373.35,0.00 374.17,-1.24 375.00,-1.65 375.82,-1.24 376.65,0.00"/>
    </edge>
    <edge id=":(4,2)_0" function="internal">
        <lane id=":(4,2)_0_0" index="0" speed="11.11" length="5.00" shape="373.35,129.75 373.16,128.39 372.58,127.43 371.61,126.84 370.25,126.65"/>
    </edge>
    <edge id=":(4,2)_1" function="internal">
        <lane id=":(4,2)_1_0" index="0" speed="11.11" length="9.50" shape="373.35,129.75 373.35,120.25"/>
    </edge>
    <edge id=":(4,2)_2" function="internal">
        <lane id=":(4,2)_2_0" index="0" speed="11.11" length="5.28" shape="373.35,129.75 373.75,126.95 374.95,124.95 375.05,124.89"/>
    </edge>
    <edge id=":(4,2)_3" function="internal">
        <lane id=":(4,2)_3_0" index="0" speed="11.11" length="2.41" shape="373.35,129.75 374.17,128.51 375.00,128.10"/>
    </edge>
    <edge id=":(4,2)_16" function="internal">
        <lane id=":(4,2)_16_0" index="0" speed="11.11" length="5.04" shape="375.05,124.89 376.95,123.75 379.75,123.35"/>
    </edge>
    <edge id=":(4,2)_17" function="internal">
        <lane id=":(4,2)_17_0" index="0" speed="11.11" length="2.41" shape="375.00,128.10 375.82,128.51 376.65,129.75"/>
    </edge>
    <edge id=":(4,2)_4" function="internal">
        <lane id=":(4,2)_4_0" index="0" speed="11.11" length="5.00" shape="379.75,126.65 378.39,126.84 377.42,127.43 376.84,128.39 376.65,129.75"/>
    </edge>
    <edge id=":(4,2)_5" function="internal">
        <lane id=":(4,2)_5_0" index="0" speed="11.11" length="9.50" shape="379.75,126.65 370.25,126.65"/>
    </edge>
    <edge id=":(4,2)_6" function="internal">
        <lane id=":(4,2)_6_0" index="0" speed="11.11" length="5.28" shape="379.75,126.65 376.95,126.25 374.95,125.05 374.89,124.95"/>
    </edge>
    <edge id=":(4,2)_7" function="internal">
        <lane id=":(4,2)_7_0" index="0" speed="11.11" length="2.41" shape="379.75,126.65 378.51,125.83 378.10,125.00"/>
    </edge>
    <edge id=":(4,2)_18" function="internal">
        <lane id=":(4,2)_18_0" index="0" speed="11.11" length="5.04" shape="374.89,124.95 373.75,123.05 373.35,120.25"/>
    </edge>
    <edge id=":(4,2)_19" function="internal">
        <lane id=":(4,2)_19_0" index="0" speed="11.11" length="2.41" shape="378.10,125.00 378.51,124.17 379.75,123.35"/>
    </edge>
    <edge id=":(4,2)_8" function="internal">
        <lane id=":(4,2)_8_0" index="0" speed="11.11" length="5.00" shape="376.65,120.25 376.84,121.61 377.42,122.57 378.39,123.16 379.75,123.35"/>
    </edge>
    <edge id=":(4,2)_9" function="internal">
        <lane id=":(4,2)_9_0" index="0" speed="11.11" length="9.50" shape="376.65,120.25 376.65,129.75"/>
    </edge>
    <edge id=":(4,2)_10" function="internal">
        <lane id=":(4,2)_10_0" index="0" speed="11.11" length="5.28" shape="376.65,120.25 376.25,123.05 375.05,125.05 374.95,125.11"/>
    </edge>
    <edge id=":(4,2)_11" function="internal">
        <lane id=":(4,2)_11_0" index="0" speed="11.11" length="2.41" shape="376.65,120.25 375.83,121.49 375.00,121.90"/>
    </edge>
    <edge id=":(4,2)_20" function="internal">
        <lane id=":(4,2)_20_0" index="0" speed="11.11" length="5.04" shape="374.95,125.11 373.05,126.25 370.25,126.65"/>
    </edge>
    <edge id=":(4,2)_21" function="internal">
        <lane id=":(4,2)_21_0" index="0" speed="11.11" length="2.41" shape="375.00,121.90 374.18,121.49 373.35,120.25"/>
    </edge>
    <edge id=":(4,2)_12" function="internal">
        <lane id=":(4,2)_12_0" index="0" speed="11.11" length="5.00" shape="370.25,123.35 371.61,123.16 372.58,122.57 373.16,121.61 373.35,120.25"/>
    </edge>
    <edge id=":(4,2)_13" function="internal">
        <lane id=":(4,2)_13_0" index="0" speed="11.11" length="9.50" shape="370.25,123.35 379.75,123.35"/>
    </edge>
    <edge id=":(4,2)_14" function="internal">
        <lane id=":(4,2)_14_0" index="0" speed="11.11" length="5.28" shape="370.25,123.35 373.05,123.75 375.05,124.95 375.11,125.05"/>
    </edge>
    <edge id=":(4,2)_15" function="internal">
        <lane id=":(4,2)_15_0" index="0" speed="11.11" length="2.41" shape="370.25,123.35 371.49,124.18 371.90,125.00"/>
    </edge>
    <edge id=":(4,2)_22" function="internal">
        <lane id=":(4,2)_22_0" index="0" speed="11.11" length="5.04" shape="375.11,125.05 376.25,126.95 376.65,129.75"/>
    </edge>
    <edge id=":(4,2)_23" function="internal">
        <lane id=":(4,2)_23_0" index="0" speed="11.11" length="2.41" shape="371.90,125.00 371.49,125.83 370.25,126.65"/>
    </edge>
    <edge id=":(4,3)_0" function="internal">
        <lane id=":(4,3)_0_0" index="0" speed="11.11" length="4.82" shape="376.65,250.00 375.83,251.24 375.00,251.65 374.18,251.24 373.35,250.00"/>
    </edge>
    <edge id=":(5,1)_0" function="internal">
        <lane id=":(5,1)_0_0" index="0" speed="11.11" length="4.82" shape="498.35,0.00 499.18,-1.24 500.00,-1.65 500.82,-1.24 501.65,0.00"/>
    </edge>
    <edge id=":(5,2)_0" function="internal">
        <lane id=":(5,2)_0_0" index="0" speed="11.11" length="5.00" shape="498.35,129.75 498.16,128.39 497.58,127.43 496.61,126.84 495.25,126.65"/>
    </edge>
    <edge id=":(5,2)_1" function="internal">
        <lane id=":(5,2)_1_0" index="0" speed="11.11" length="9.50" shape="498.35,129.75 498.35,120.25"/>
    </edge>
    <edge id=":(5,2)_2" function="internal">
        <lane id=":(5,2)_2_0" index="0" speed="11.11" length="5.28" shape="498.35,129.75 498.75,126.95 499.95,124.95 500.05,124.89"/>
    </edge>
    <edge id=":(5,2)_3" function="internal">
        <lane id=":(5,2)_3_0" index="0" speed="11.11" length="2.41" shape="498.35,129.75 499.18,128.51 500.00,128.10"/>
    </edge>
    <edge id=":(5,2)_16" function="internal">
        <lane id=":(5,2)_16_0" index="0" speed="11.11" length="5.04" shape="500.05,124.89 501.95,123.75 504.75,123.35"/>
    </edge>
    <edge id=":(5,2)_17" function="internal">
        <lane id=":(5,2)_17_0" index="0" speed="11.11" length="2.41" shape="500.00,128.10 500.82,128.51 501.65,129.75"/>
    </edge>
    <edge id=":(5,2)_4" function="internal">
        <lane id=":(5,2)_4_0" index="0" speed="11.11" length="5.00" shape="504.75,126.65 503.39,126.84 502.42,127.43 501.84,128.39 501.65,129.75"/>
    </edge>
    <edge id=":(5,2)_5" function="internal">
        <lane id=":(5,2)_5_0" index="0" speed="11.11" length="9.50" shape="504.75,126.65 495.25,126.65"/>
    </edge>
    <edge id=":(5,2)_6" function="internal">
        <lane id=":(5,2)_6_0" index="0" speed="11.11" length="5.28" shape="504.75,126.65 501.95,126.25 499.95,125.05 499.89,124.95"/>
    </edge>
    <edge id=":(5,2)_7" function="internal">
        <lane id=":(5,2)_7_0" index="0" speed="11.11" length="2.41" shape="504.75,126.65 503.51,125.83 503.10,125.00"/>
    </edge>
    <edge id=":(5,2)_18" function="internal">
        <lane id=":(5,2)_18_0" index="0" speed="11.11" length="5.04" shape="499.89,124.95 498.75,123.05 498.35,120.25"/>
    </edge>
    <edge id=":(5,2)_19" function="internal">
        <lane id=":(5,2)_19_0" index="0" speed="11.11" length="2.41" shape="503.10,125.00 503.51,124.17 504.75,123.35"/>
    </edge>
    <edge id=":(5,2)_8" function="internal">
        <lane id=":(5,2)_8_0" index="0" speed="11.11" length="5.00" shape="501.65,120.25 501.84,121.61 502.42,122.57 503.39,123.16 504.75,123.35"/>
    </edge>
    <edge id=":(5,2)_9" function="internal">
        <lane id=":(5,2)_9_0" index="0" speed="11.11" length="9.50" shape="501.65,120.25 501.65,129.75"/>
    </edge>
    <edge id=":(5,2)_10" function="internal">
        <lane id=":(5,2)_10_0" index="0" speed="11.11" length="5.28" shape="501.65,120.25 501.25,123.05 500.05,125.05 499.95,125.11"/>
    </edge>
    <edge id=":(5,2)_11" function="internal">
        <lane id=":(5,2)_11_0" index="0" speed="11.11" length="2.41" shape="501.65,120.25 500.82,121.49 500.00,121.90"/>
    </edge>
    <edge id=":(5,2)_20" function="internal">
        <lane id=":(5,2)_20_0" index="0" speed="11.11" length="5.04" shape="499.95,125.11 498.05,126.25 495.25,126.65"/>
    </edge>
    <edge id=":(5,2)_21" function="internal">
        <lane id=":(5,2)_21_0" index="0" speed="11.11" length="2.41" shape="500.00,121.90 499.18,121.49 498.35,120.25"/>
    </edge>
    <edge id=":(5,2)_12" function="internal">
        <lane id=":(5,2)_12_0" index="0" speed="11.11" length="5.00" shape="495.25,123.35 496.61,123.16 497.58,122.57 498.16,121.61 498.35,120.25"/>
    </edge>
    <edge id=":(5,2)_13" function="internal">
        <lane id=":(5,2)_13_0" index="0" speed="11.11" length="9.50" shape="495.25,123.35 504.75,123.35"/>
    </edge>
    <edge id=":(5,2)_14" function="internal">
        <lane id=":(5,2)_14_0" index="0" speed="11.11" length="5.28" shape="495.25,123.35 498.05,123.75 500.05,124.95 500.11,125.05"/>
    </edge>
    <edge id=":(5,2)_15" function="internal">
        <lane id=":(5,2)_15_0" index="0" speed="11.11" length="2.41" shape="495.25,123.35 496.49,124.18 496.90,125.00"/>
    </edge>
    <edge id=":(5,2)_22" function="internal">
        <lane id=":(5,2)_22_0" index="0" speed="11.11" length="5.04" shape="500.11,125.05 501.25,126.95 501.65,129.75"/>
    </edge>
    <edge id=":(5,2)_23" function="internal">
        <lane id=":(5,2)_23_0" index="0" speed="11.11" length="2.41" shape="496.90,125.00 496.49,125.83 495.25,126.65"/>
    </edge>
    <edge id=":(5,3)_0" function="internal">
        <lane id=":(5,3)_0_0" index="0" speed="11.11" length="4.82" shape="501.65,250.00 500.82,251.24 500.00,251.65 499.18,251.24 498.35,250.00"/>
    </edge>
    <edge id=":(6,1)_0" function="internal">
        <lane id=":(6,1)_0_0" index="0" speed="11.11" length="4.82" shape="623.35,0.00 624.18,-1.24 625.00,-1.65 625.83,-1.24 626.65,0.00"/>
    </edge>
    <edge id=":(6,2)_0" function="internal">
        <lane id=":(6,2)_0_0" index="0" speed="11.11" length="5.00" shape="623.35,129.75 623.16,128.39 622.58,127.43 621.61,126.84 620.25,126.65"/>
    </edge>
    <edge id=":(6,2)_1" function="internal">
        <lane id=":(6,2)_1_0" index="0" speed="11.11" length="9.50" shape="623.35,129.75 623.35,120.25"/>
    </edge>
    <edge id=":(6,2)_2" function="internal">
        <lane id=":(6,2)_2_0" index="0" speed="11.11" length="5.28" shape="623.35,129.75 623.75,126.95 624.95,124.95 625.05,124.89"/>
    </edge>
    <edge id=":(6,2)_3" function="internal">
        <lane id=":(6,2)_3_0" index="0" speed="11.11" length="2.41" shape="623.35,129.75 624.18,128.51 625.00,128.10"/>
    </edge>
    <edge id=":(6,2)_16" function="internal">
        <lane id=":(6,2)_16_0" index="0" speed="11.11" length="5.04" shape="625.05,124.89 626.95,123.75 629.75,123.35"/>
    </edge>
    <edge id=":(6,2)_17" function="internal">
        <lane id=":(6,2)_17_0" index="0" speed="11.11" length="2.41" shape="625.00,128.10 625.83,128.51 626.65,129.75"/>
    </edge>
    <edge id=":(6,2)_4" function="internal">
        <lane id=":(6,2)_4_0" index="0" speed="11.11" length="5.00" shape="629.75,126.65 628.39,126.84 627.42,127.43 626.84,128.39 626.65,129.75"/>
    </edge>
    <edge id=":(6,2)_5" function="internal">
        <lane id=":(6,2)_5_0" index="0" speed="11.11" length="9.50" shape="629.75,126.65 620.25,126.65"/>
    </edge>
    <edge id=":(6,2)_6" function="internal">
        <lane id=":(6,2)_6_0" index="0" speed="11.11" length="5.28" shape="629.75,126.65 626.95,126.25 624.95,125.05 624.89,124.95"/>
    </edge>
    <edge id=":(6,2)_7" function="internal">
        <lane id=":(6,2)_7_0" index="0" speed="11.11" length="2.41" shape="629.75,126.65 628.51,125.83 628.10,125.00"/>
    </edge>
    <edge id=":(6,2)_18" function="internal">
        <lane id=":(6,2)_18_0" index="0" speed="11.11" length="5.04" shape="624.89,124.95 623.75,123.05 623.35,120.25"/>
    </edge>
    <edge id=":(6,2)_19" function="internal">
        <lane id=":(6,2)_19_0" index="0" speed="11.11" length="2.41" shape="628.10,125.00 628.51,124.17 629.75,123.35"/>
    </edge>
    <edge id=":(6,2)_8" function="internal">
        <lane id=":(6,2)_8_0" index="0" speed="11.11" length="5.00" shape="626.65,120.25 626.84,121.61 627.42,122.57 628.39,123.16 629.75,123.35"/>
    </edge>
    <edge id=":(6,2)_9" function="internal">
        <lane id=":(6,2)_9_0" index="0" speed="11.11" length="9.50" shape="626.65,120.25 626.65,129.75"/>
    </edge>
    <edge id=":(6,2)_10" function="internal">
        <lane id=":(6,2)_10_0" index="0" speed="11.11" length="5.28" shape="626.65,120.25 626.25,123.05 625.05,125.05 624.95,125.11"/>
    </edge>
    <edge id=":(6,2)_11" function="internal">
        <lane id=":(6,2)_11_0" index="0" speed="11.11" length="2.41" shape="626.65,120.25 625.82,121.49 625.00,121.90"/>
    </edge>
    <edge id=":(6,2)_20" function="internal">
        <lane id=":(6,2)_20_0" index="0" speed="11.11" length="5.04" shape="624.95,125.11 623.05,126.25 620.25,126.65"/>
    </edge>
    <edge id=":(6,2)_21" function="internal">
        <lane id=":(6,2)_21_0" index="0" speed="11.11" length="2.41" shape="625.00,121.90 624.17,121.49 623.35,120.25"/>
    </edge>
    <edge id=":(6,2)_12" function="internal">
        <lane id=":(6,2)_12_0" index="0" speed="11.11" length="5.00" shape="620.25,123.35 621.61,123.16 622.58,122.57 623.16,121.61 623.35,120.25"/>
    </edge>
    <edge id=":(6,2)_13" function="internal">
        <lane id=":(6,2)_13_0" index="0" speed="11.11" length="9.50" shape="620.25,123.35 629.75,123.35"/>
    </edge>
    <edge id=":(6,2)_14" function="internal">
        <lane id=":(6,2)_14_0" index="0" speed="11.11" length="5.28" shape="620.25,123.35 623.05,123.75 625.05,124.95 625.11,125.05"/>
    </edge>
    <edge id=":(6,2)_15" function="internal">
        <lane id=":(6,2)_15_0" index="0" speed="11.11" length="2.41" shape="620.25,123.35 621.49,124.18 621.90,125.00"/>
    </edge>
    <edge id=":(6,2)_22" function="internal">
        <lane id=":(6,2)_22_0" index="0" speed="11.11" length="5.04" shape="625.11,125.05 626.25,126.95 626.65,129.75"/>
    </edge>
    <edge id=":(6,2)_23" function="internal">
        <lane id=":(6,2)_23_0" index="0" speed="11.11" length="2.41" shape="621.90,125.00 621.49,125.83 620.25,126.65"/>
    </edge>
    <edge id=":(6,3)_0" function="internal">
        <lane id=":(6,3)_0_0" index="0" speed="11.11" length="4.82" shape="626.65,250.00 625.82,251.24 625.00,251.65 624.17,251.24 623.35,250.00"/>
    </edge>
    <edge id=":(7,2)_0" function="internal">
        <lane id=":(7,2)_0_0" index="0" speed="11.11" length="4.82" shape="750.00,123.35 751.24,124.18 751.65,125.00 751.24,125.83 750.00,126.65"/>
    </edge>

    <edge id="e_1_2_2_2" from="(1,2)" to="(2,2)" priority="3" type="d">
        <lane id="e_1_2_2_2_0" index="0" speed="11.11" length="120.25" shape="0.00,123.35 120.25,123.35"/>
    </edge>
    <edge id="e_2_1_2_2" from="(2,1)" to="(2,2)" priority="3" type="d">
        <lane id="e_2_1_2_2_0" index="0" speed="11.11" length="120.25" shape="126.65,0.00 126.65,120.25"/>
    </edge>
    <edge id="e_2_2_1_2" from="(2,2)" to="(1,2)" priority="3" type="d">
        <lane id="e_2_2_1_2_0" index="0" speed="11.11" length="120.25" shape="120.25,126.65 0.00,126.65"/>
    </edge>
    <edge id="e_2_2_2_1" from="(2,2)" to="(2,1)" priority="3" type="d">
        <lane id="e_2_2_2_1_0" index="0" speed="11.11" length="120.25" shape="123.35,120.25 123.35,0.00"/>
    </edge>
    <edge id="e_2_2_2_3" from="(2,2)" to="(2,3)" priority="3" type="d">
        <lane id="e_2_2_2_3_0" index="0" speed="11.11" length="120.25" shape="126.65,129.75 126.65,250.00"/>
    </edge>
    <edge id="e_2_2_3_2" from="(2,2)" to="(3,2)" priority="3" type="d">
        <lane id="e_2_2_3_2_0" index="0" speed="11.11" length="115.50" shape="129.75,123.35 245.25,123.35"/>
    </edge>
    <edge id="e_2_3_2_2" from="(2,3)" to="(2,2)" priority="3" type="d">
        <lane id="e_2_3_2_2_0" index="0" speed="11.11" length="120.25" shape="123.35,250.00 123.35,129.75"/>
    </edge>
    <edge id="e_3_1_3_2" from="(3,1)" to="(3,2)" priority="3" type="d">
        <lane id="e_3_1_3_2_0" index="0" speed="11.11" length="120.25" shape="251.65,0.00 251.65,120.25"/>
    </edge>
    <edge id="e_3_2_2_2" from="(3,2)" to="(2,2)" priority="3" type="d">
        <lane id="e_3_2_2_2_0" index="0" speed="11.11" length="115.50" shape="245.25,126.65 129.75,126.65"/>
    </edge>
    <edge id="e_3_2_3_1" from="(3,2)" to="(3,1)" priority="3" type="d">
        <lane id="e_3_2_3_1_0" index="0" speed="11.11" length="120.25" shape="248.35,120.25 248.35,0.00"/>
    </edge>
    <edge id="e_3_2_3_3" from="(3,2)" to="(3,3)" priority="3" type="d">
        <lane id="e_3_2_3_3_0" index="0" speed="11.11" length="120.25" shape="251.65,129.75 251.65,250.00"/>
    </edge>
    <edge id="e_3_2_4_2" from="(3,2)" to="(4,2)" priority="3" type="d">
        <lane id="e_3_2_4_2_0" index="0" speed="11.11" length="115.50" shape="254.75,123.35 370.25,123.35"/>
    </edge>
    <edge id="e_3_3_3_2" from="(3,3)" to="(3,2)" priority="3" type="d">
        <lane id="e_3_3_3_2_0" index="0" speed="11.11" length="120.25" shape="248.35,250.00 248.35,129.75"/>
    </edge>
    <edge id="e_4_1_4_2" from="(4,1)" to="(4,2)" priority="3" type="d">
        <lane id="e_4_1_4_2_0" index="0" speed="11.11" length="120.25" shape="376.65,0.00 376.65,120.25"/>
    </edge>
    <edge id="e_4_2_3_2" from="(4,2)" to="(3,2)" priority="3" type="d">
        <lane id="e_4_2_3_2_0" index="0" speed="11.11" length="115.50" shape="370.25,126.65 254.75,126.65"/>
    </edge>
    <edge id="e_4_2_4_1" from="(4,2)" to="(4,1)" priority="3" type="d">
        <lane id="e_4_2_4_1_0" index="0" speed="11.11" length="120.25" shape="373.35,120.25 373.35,0.00"/>
    </edge>
    <edge id="e_4_2_4_3" from="(4,2)" to="(4,3)" priority="3" type="d">
        <lane id="e_4_2_4_3_0" index="0" speed="11.11" length="120.25" shape="376.65,129.75 376.65,250.00"/>
    </edge>
    <edge id="e_4_2_5_2" from="(4,2)" to="(5,2)" priority="3" type="d">
        <lane id="e_4_2_5_2_0" index="0" speed="11.11" length="115.50" shape="379.75,123.35 495.25,123.35"/>
    </edge>
    <edge id="e_4_3_4_2" from="(4,3)" to="(4,2)" priority="3" type="d">
        <lane id="e_4_3_4_2_0" index="0" speed="11.11" length="120.25" shape="373.35,250.00 373.35,129.75"/>
    </edge>
    <edge id="e_5_1_5_2" from="(5,1)" to="(5,2)" priority="3" type="d">
        <lane id="e_5_1_5_2_0" index="0" speed="11.11" length="120.25" shape="501.65,0.00 501.65,120.25"/>
    </edge>
    <edge id="e_5_2_4_2" from="(5,2)" to="(4,2)" priority="3" type="d">
        <lane id="e_5_2_4_2_0" index="0" speed="11.11" length="115.50" shape="495.25,126.65 379.75,126.65"/>
    </edge>
    <edge id="e_5_2_5_1" from="(5,2)" to="(5,1)" priority="3" type="d">