<?xml version="1.0" encoding="UTF-8"?>

<!-- generated on Tue Jun 26 12:18:37 2018 by SUMO polyconvert Version svn
<?xml version="1.0" encoding="UTF-8"?>

<configuration xmlns:xsi="http://www.w3.org/2001/XMLSchema-instance" xsi:noNamespaceSchemaLocation="http://sumo.dlr.de/xsd/polyconvertConfiguration.xsd">

    <input>
        <net-file value="/home/rusheng/2018-06-26-12-18-36/osm.net.xml"/>
        <osm-files value="osm_bbox.osm.xml"/>
        <osm.keep-full-type value="true"/>
        <type-file value="/home/rusheng/pysumo/sumo/sumo/data/typemap/osmPolyconvert.typ.xml"/>
    </input>

    <output>
        <output-file value="/home/rusheng/2018-06-26-12-18-36/osm.poly.xml"/>
    </output>

    <processing>
        <poi-layer-offset value="5"/>
    </processing>

    <report>
        <verbose value="true"/>
    </report>

</configuration>
-->

<additional xmlns:xsi="http://www.w3.org/2001/XMLSchema-instance" xsi:noNamespaceSchemaLocation="http://sumo.dlr.de/xsd/additional_file.xsd">
    <location netOffset="-587944.36,-4476781.30" convBoundary="-487.13,0.00,1091.03,1305.28" origBoundary="-79.968728,40.436934,-79.950152,40.448794" projParameter="+proj=utm +zone=17 +ellps=WGS84 +datum=WGS84 +units=m +no_defs"/>

    <poly id="154244846" type="amenity.university" color="237,199,199" fill="1" layer="-1.00" shape="1002.87,455.40 1021.37,453.60 1062.66,469.52 1091.03,537.38 1069.03,548.96 1065.01,541.47 1055.24,547.41 1059.65,554.09 1034.54,566.56 975.97,586.41 969.42,563.06 957.46,566.90 953.17,555.57 943.20,543.52 910.22,546.61 889.83,548.69 862.67,539.95 841.84,557.51 796.00,683.94 793.42,699.00 1028.30,781.98 986.54,903.34 1066.13,915.59 1058.92,975.29 972.14,960.41 965.81,959.48 933.17,1049.48 932.04,1071.80 959.04,1096.60 970.85,1098.55 946.83,1164.73 915.98,1157.57 899.18,1154.65 886.94,1188.94 837.85,1169.46 829.82,1160.91 839.30,1150.47 835.50,1146.79 837.71,1142.72 801.42,1111.80 754.02,1155.34 700.06,1104.86 697.35,1100.59 788.11,1007.56 722.40,946.95 739.48,926.31 771.67,890.20 710.42,833.62 690.75,815.15 624.15,750.29 479.70,618.14 476.10,614.84 369.50,693.43 453.07,771.85 487.59,738.24 525.50,772.36 568.94,725.31 609.25,762.84 546.29,831.91 503.88,876.74 476.78,901.90 548.72,972.84 474.72,1047.64 466.00,1052.41 428.55,1061.94 403.26,1090.65 375.18,1127.93 364.52,1159.71 348.03,1179.03 354.79,1230.84 363.52,1262.03 331.23,1218.23 320.94,1189.22 287.79,1171.75 278.10,1161.71 255.32,1135.13 245.02,1068.96 237.49,1014.64 234.79,996.77 232.79,983.54 231.57,975.44 216.83,951.70 186.53,935.49 137.39,933.80 134.28,952.89 139.59,982.77 57.63,1010.88 7.02,1023.89 -41.27,1002.60 -48.30,992.56 -94.12,1041.46 -133.75,1090.35 -121.73,1100.76 -131.75,1117.50 -104.33,1138.04 -100.37,1153.29 -27.60,1219.84 37.53,1225.66 47.28,1305.28 -119.66,1304.57 -149.98,1300.72 -144.39,1281.74 -151.53,1270.23 -221.16,1197.61 -242.82,1112.19 -241.20,1048.06 -233.52,1019.33 -243.08,1004.50 -280.30,987.39 -338.96,943.03 -376.34,920.44 -484.39,843.13 -487.13,750.47 -456.79,735.49 -408.05,728.81 -370.50,724.28 -355.74,732.70 -298.24,760.90 -285.26,771.19 -244.63,690.27 -236.05,669.63 -228.78,657.79 -185.14,701.93 -133.42,659.62 -152.12,638.50 -140.24,557.30 -129.07,506.26 -99.14,511.18 -41.38,591.48 68.92,516.73 138.32,471.74 237.87,399.12 301.52,461.36 267.37,485.95 295.70,530.88 229.56,571.65 174.50,494.11 150.27,509.34 125.55,523.92 144.61,558.00 120.10,575.91 127.79,587.62 150.24,619.32 137.19,629.14 201.43,717.96 213.25,725.74 264.14,685.27 369.57,618.27 434.50,590.94 483.57,547.80 495.29,559.26 506.67,570.47 543.85,534.36 518.13,510.14 584.38,442.35 554.85,413.37 578.98,388.56 587.52,379.95 610.75,401.88 617.48,395.08 592.62,369.59 600.00,362.35 606.02,368.60 618.62,355.20 613.73,349.24 620.39,343.78 643.89,368.28 633.06,379.16 670.25,415.33 675.92,410.02 644.47,378.93 649.29,374.53 685.16,408.87 691.13,403.56 624.52,339.37 630.89,333.10 606.23,309.99 639.19,277.52 657.98,296.15 680.35,275.10 707.41,302.23 694.77,314.79 734.88,354.86 740.60,349.21 730.90,339.88 737.58,332.81 714.11,309.07 732.75,290.20 756.14,313.77 763.87,304.50 794.47,334.18 757.12,361.00 741.55,375.11 761.22,400.87 797.06,394.27 872.63,395.48 868.88,426.02 861.03,456.44 866.20,468.03 875.89,493.76 869.67,498.03 879.97,521.19 887.17,535.50 918.23,530.97 941.98,522.29 962.72,496.92 966.74,477.25 977.32,473.01 1002.87,455.40"/>
    <poly id="154421796" type="building.university" color="255,230,230" fill="1" layer="-1.00" shape="564.31,469.16 528.59,504.76 532.93,509.04 528.84,513.20 555.29,539.26 559.43,535.06 563.79,539.35 572.30,530.72 574.34,532.73 586.95,519.92 589.33,522.26 603.46,507.12 564.31,469.16"/>
    <poly id="154764659" type="amenity.university" color="237,199,199" fill="1" layer="-1.00" shape="398.03,405.70 367.73,437.05 385.38,454.91 416.93,423.99 398.03,405.70"/>
    <poly id="240900027" type="building.yes" color="255,230,230" fill="1" layer="-1.00" shape="501.69,486.38 520.98,466.75 532.11,477.61 512.82,497.23 501.69,486.38"/>
    <poly id="240900028" type="building.yes" color="255,230,230" fill="1" layer="-1.00" shape="532.11,477.61 520.98,466.75 518.91,464.73 528.16,455.31 533.92,449.47 543.87,459.17 547.11,462.34 532.11,477.61"/>
    <poly id="240900029" type="building.yes" color="255,230,230" fill="1" layer="-1.00" shape="501.69,486.38 490.67,475.62 509.96,456.00 518.91,464.73 520.98,466.75 501.69,486.38"/>
    <poly id="240900030" type="building.yes" color="255,230,230" fill="1" layer="-1.00" shape="468.73,454.22 488.02,434.60 505.03,451.19 485.74,470.81 468.73,454.22"/>
    <poly id="240900031" type="building.yes" color="255,230,230" fill="1" layer="-1.00" shape="490.67,475.62 485.74,470.81 505.03,451.19 509.96,456.00 490.67,475.62"/>
    <poly id="240900032" type="building.yes" color="255,230,230" fill="1" layer="-1.00" shape="488.02,434.60 494.15,428.37 516.08,449.78 509.96,456.00 505.03,451.19 488.02,434.60"/>
    <poly id="240900033" type="building.yes" color="255,230,230" fill="1" layer="-1.00" shape="494.15,428.37 502.57,419.81 524.50,441.21 516.08,449.78 494.15,428.37"/>
    <poly id="240900034" type="building.yes" color="255,230,230" fill="1" layer="-1.00" shape="502.57,419.81 511.45,410.77 533.39,432.17 524.50,441.21 502.57,419.81"/>
    <poly id="240900035" type="building.yes" color="255,230,230" fill="1" layer="-1.00" shape="511.45,410.77 522.40,399.64 544.33,421.05 533.39,432.17 511.45,410.77"/>
    <poly id="240900037" type="building.yes" color="255,230,230" fill="1" layer="-1.00" shape="400.22,526.72 435.84,490.11 467.39,521.88 458.92,529.71 461.74,532.61 437.80,557.06 434.80,560.12 400.22,526.72"/>
    <poly id="240900039" type="building.yes" color="255,230,230" fill="1" layer="-1.00" shape="489.62,500.32 500.20,511.51 469.87,540.92 461.74,532.61 458.92,529.71 467.39,521.88 469.05,520.23 471.95,517.51 489.62,500.32"/>
    <poly id="240900040" type="building.yes" color="255,230,230" fill="1" layer="-1.00" shape="439.37,485.89 456.41,467.51 466.62,477.60 449.51,495.22 439.37,485.89"/>
    <poly id="240900041" type="building.yes" color="255,230,230" fill="1" layer="-1.00" shape="465.06,510.59 482.37,492.76 489.62,500.32 471.95,517.51 465.06,510.59"/>
    <poly id="240900042" type="building.yes" color="255,230,230" fill="1" layer="-1.00" shape="449.25,495.49 449.51,495.22 466.62,477.60 482.37,492.76 465.06,510.59 462.24,507.99 466.01,504.11 461.77,500.03 459.37,502.51 456.93,500.16 460.91,496.06 458.01,493.26 452.66,498.77 449.25,495.49"/>
    <poly id="240900043" type="building.yes" color="255,230,230" fill="1" layer="-1.00" shape="410.57,396.99 420.88,407.94 424.99,403.34 426.51,402.68 427.57,401.62 428.07,399.63 433.18,394.94 435.04,397.13 430.48,401.89 428.69,402.66 427.46,404.00 426.72,405.45 422.60,409.45 433.46,419.68 436.94,415.31 438.55,415.00 440.05,413.78 440.65,411.63 445.41,407.30 449.05,411.14 443.89,415.45 442.32,416.07 440.98,416.92 439.89,418.52 436.24,422.79 447.78,432.81 451.39,428.52 452.69,427.93 453.98,426.57 454.70,424.63 459.38,419.85 461.52,422.30 456.71,426.94 455.09,427.56 453.69,428.75 452.83,430.69 449.19,434.50 459.79,444.76 477.90,426.60 476.08,424.27 475.15,424.36 473.73,423.13 473.13,422.13 460.66,408.43 445.47,394.43 441.26,390.43 439.83,391.90 432.63,386.52 433.85,384.44 429.77,380.32 430.09,378.76 428.81,377.64 417.04,389.50 414.31,392.40 410.57,396.99"/>
    <poly id="240900047" type="amenity.parking" color="184,184,179" fill="1" layer="-1.00" shape="522.53,381.77 555.29,347.24 503.71,298.67 470.95,333.20 522.53,381.77"/>
    <poly id="240900053" type="building.commercial" color="255,230,230" fill="1" layer="-1.00" shape="376.36,390.90 349.58,418.61 359.97,428.65 386.75,400.93 376.36,390.90"/>
    <poly id="240900054" type="building.yes" color="255,230,230" fill="1" layer="-1.00" shape="403.82,470.00 419.92,485.78 444.24,461.14 428.14,445.36 403.82,470.00"/>
    <poly id="240900055" type="building.yes" color="255,230,230" fill="1" layer="-1.00" shape="388.15,454.64 403.82,470.00 428.14,445.36 412.46,430.01 388.15,454.64"/>
    <poly id="334630150" type="amenity.hospital" color="237,199,199" fill="1" layer="-1.00" shape="25.82,548.27 12.69,538.38 -47.66,458.16 78.11,325.77 64.83,312.23 108.13,266.89 173.62,193.40 200.48,219.10 169.72,252.48 265.34,343.35 236.22,374.89 232.81,383.12 229.87,390.23 205.47,426.26 257.53,501.77 201.72,541.87 226.13,575.90 287.59,535.00 304.56,523.71 278.05,497.34 306.58,466.60 380.57,540.08 434.29,485.99 469.05,520.23 467.39,521.88 405.54,587.52 367.58,603.96 282.88,661.23 212.60,712.24 188.81,727.26 173.60,731.00 160.53,728.15 25.82,548.27"/>
    <poly id="334650642" type="building.yes" color="255,230,230" fill="1" layer="-1.00" shape="434.40,380.69 465.95,347.53 507.12,387.90 476.47,420.62 434.40,380.69"/>
    <poly id="334650643" type="building.yes" color="255,230,230" fill="1" layer="-1.00" shape="470.37,397.21 483.74,382.64 471.60,370.94 458.47,384.15 470.37,397.21"/>
    <poly id="369586819" type="amenity.parking" color="184,184,179" fill="1" layer="-1.00" shape="543.87,459.17 533.92,449.47 535.38,447.97 531.80,444.48 529.87,446.44 524.50,441.21 533.39,432.17 544.33,421.05 567.28,443.42 554.24,456.68 550.60,460.39 546.56,456.44 543.87,459.17"/>
    <poly id="535897019" type="building.yes" color="255,230,230" fill="1" layer="-1.00" shape="412.46,430.01 406.04,423.72 396.90,414.76 377.47,434.45 372.58,439.40 380.11,446.77 388.15,454.64 412.46,430.01"/>
    <poly id="535897022" type="building.yes" color="255,230,230" fill="1" layer="-1.00" shape="528.16,455.31 524.58,451.82 529.87,446.44 524.50,441.21 516.08,449.78 509.96,456.00 518.91,464.73 528.16,455.31"/>
    <poly id="535897445" type="building.yes" color="255,230,230" fill="1" layer="-1.00" shape="411.18,346.99 403.76,354.63 405.62,356.44 397.18,365.13 395.47,363.47 385.57,373.65 400.19,387.84 425.93,361.32 411.18,346.99"/>
    <poly id="535897475" type="building.commercial" color="255,230,230" fill="1" layer="-1.00" shape="355.60,456.12 339.66,472.82 387.97,518.94 414.92,490.72 404.91,481.17 400.99,485.28 396.04,480.54 398.12,478.35 389.26,469.88 379.01,480.61 380.38,481.91 375.69,486.83 372.49,483.77 377.32,478.72 374.83,476.35 375.78,475.36 371.03,470.82 365.70,476.39 365.03,475.75 362.40,478.50 361.86,477.98 366.45,473.17 360.60,467.58 364.54,463.45 360.55,459.63 359.95,460.27 355.60,456.12"/>
    <poly id="535897476" type="building.yes" color="255,230,230" fill="1" layer="-1.00" shape="551.61,387.90 541.27,398.56 555.90,412.76 566.24,402.10 551.61,387.90"/>
    <poly id="541992587" type="amenity.parking" color="184,184,179" fill="1" layer="-1.00" shape="540.06,396.01 533.62,389.83 543.99,379.19 550.67,385.13 540.06,396.01"/>
    <poi id="2495673120" type="amenity.cafe" color="237,199,199" layer="4.00" x="436.93" y="456.40"/>
    <poi id="2710170969" type="amenity.bank" color="237,199,199" layer="4.00" x="391.53" y="377.98"/>
    <poi id="2710170970" type="amenity.restaurant" color="237,199,199" layer="4.00" x="412.78" y="399.42"/>
    <poi id="2710170971" type="shop.clothes" color="237,199,255" layer="4.00" x="418.51" y="405.49"/>
    <poi id="2710170974" type="shop.sports" color="237,199,255" layer="4.00" x="441.92" y="426.51"/>
    <poi id="2710170975" type="shop.optician" color="237,199,255" layer="4.00" x="451.26" y="434.55"/>
    <poi id="2710170976" type="shop.stationery" color="237,199,255" layer="4.00" x="446.53" y="430.75"/>
    <poi id="2710170977" type="shop.electronics" color="237,199,255" layer="4.00" x="424.48" y="410.55"/>
    <poi id="2710170978" type="shop.video_games" color="237,199,255" layer="4.00" x="430.89" y="416.18"/>
    <poi id="2710170979" type="amenity.cafe" color="237,199,199" layer="4.00" x="456.21" y="439.48"/>
    <poi id="2710170980" type="shop.mobile_phone" color="237,199,255" layer="4.00" x="403.46" y="417.78"/>
    <poi id="2710170981" type="amenity.pharmacy" color="237,199,199" layer="4.00" x="478.69" y="462.63"/>
    <poi id="2710170982" type="amenity.fast_food" color="237,199,199" layer="4.00" x="488.58" y="472.72"/>
    <poi id="2710170983" type="shop.bakery" color="237,199,255" layer="4.00" x="505.00" y="488.56"/>
    <poi id="2710170985" type="amenity.restaurant" color="237,199,199" layer="4.00" x="511.31" y="494.40"/>
    <poi id="2710170986" type="amenity.post_office" color="237,199,199" layer="4.00" x="495.00" y="478.47"/>
    <poi id="2710170986#1" type="shop.copyshop" color="237,199,255" layer="4.00" x="495.00" y="478.47"/>
    <poi id="2710170987" type="shop.jewelry" color="237,199,255" layer="4.00" x="529.39" y="513.44"/>
    <poi id="2933692801" type="amenity.ice_cream" color="237,199,199" layer="4.00" x="486.22" y="437.25"/>
    <poi id="5227872331" type="amenity.restaurant" color="237,199,199" layer="4.00" x="480.10" y="501.20"/>
    <poi id="5240338994" type="amenity.cafe" color="237,199,199" layer="4.00" x="530.96" y="504.17"/>
    <poi id="5240344580" type="amenity.cafe" color="237,199,199" layer="4.00" x="538.52" y="495.92"/>
    <poi id="5240345648" type="amenity.fast_food" color="237,199,199" layer="4.00" x="535.23" y="472.34"/>
    <poi id="5240356674" type="amenity.fast_food" color="237,199,199" layer="4.00" x="390.47" y="507.57"/>
    <poi id="5240356677" type="amenity.fast_food" color="237,199,199" layer="4.00" x="429.75" y="451.71"/>
    <poi id="5377022835" type="amenity.fast_food" color="237,199,199" layer="4.00" x="495.27" y="511.68"/>
    <poi id="871836046" type="amenity.restaurant" color="237,199,199" layer="4.00" x="539.11" y="467.47"/>
    <poi id="902287334" type="amenity.restaurant" color="237,199,199" layer="4.00" x="458.77" y="472.49"/>
</additional>
