<?xml version="1.0" encoding="UTF-8"?>

<!-- generated on Tue Jun 26 12:18:37 2018 by SUMO duarouter Version svn
<?xml version="1.0" encoding="UTF-8"?>

<configuration xmlns:xsi="http://www.w3.org/2001/XMLSchema-instance" xsi:noNamespaceSchemaLocation="http://sumo.dlr.de/xsd/duarouterConfiguration.xsd">

    <input>
        <net-file value="osm.net.xml"/>
        <route-files value="osm.passenger.trips.xml"/>
    </input>

    <output>
        <output-file value="osm.passenger.rou.xml"/>
    </output>

    <processing>
        <ignore-errors value="true"/>
    </processing>

    <time>
        <begin value="0"/>
        <end value="3600.0"/>
    </time>

    <report>
        <no-warnings value="true"/>
        <no-step-log value="true"/>
    </report>

</configuration>
-->

<routes xmlns:xsi="http://www.w3.org/2001/XMLSchema-instance" xsi:noNamespaceSchemaLocation="http://sumo.dlr.de/xsd/routes_file.xsd">
    <vType id="passenger" speedDev="0.10" vClass="passenger"/>
    <vehicle id="veh0" type="passenger" depart="0.00" departLane="best">
        <route edges="294294299#0 26321030#0 11962498#0"/>
    </vehicle>
    <vehicle id="veh1" type="passenger" depart="2.96" departLane="best">
        <route edges="11734345#0 11962498#1 11830680#0 11830680#1 11830680#2"/>
    </vehicle>
    <vehicle id="veh2" type="passenger" depart="5.91" departLane="best">
        <route edges="294294299#0 26321030#0 11962498#0"/>
    </vehicle>
    <vehicle id="veh3" type="passenger" depart="8.87" departLane="best">
        <route edges="294294299#0 294294299#3 294294299#4 11830680#2"/>
    </vehicle>
    <vehicle id="veh4" type="passenger" depart="11.82" departLane="best">
        <route edges="11734345#0 11962498#1 -11962498#1"/>
    </vehicle>
    <vehicle id="veh5" type="passenger" depart="14.78" departLane="best">
        <route edges="294294299#0 26321030#0"/>
    </vehicle>
    <vehicle id="veh7" type="passenger" depart="20.69" departLane="best">
        <route edges="294294299#0 26321030#0 11962498#0 11734345#2"/>
    </vehicle>
    <vehicle id="veh9" type="passenger" depart="26.60" departLane="best">
        <route edges="294294299#0 26321030#0 11962498#0 11734345#2"/>
    </vehicle>
    <vehicle id="veh10" type="passenger" depart="29.56" departLane="best">
        <route edges="294294299#0 26321030#0 26321030#1"/>
    </vehicle>
    <vehicle id="veh11" type="passenger" depart="32.51" departLane="best">
        <route edges="294294299#0 294294299#3 294294299#4"/>
    </vehicle>
    <vehicle id="veh12" type="passenger" depart="35.47" departLane="best">
        <route edges="294294299#0 -11690285#1"/>
    </vehicle>
    <vehicle id="veh13" type="passenger" depart="38.43" departLane="best">
        <route edges="11734345#0 11734345#2 11734345#3"/>
    </vehicle>
    <vehicle id="veh14" type="passenger" depart="41.38" departLane="best">
        <route edges="294294299#0 -11690285#1 11690285#1"/>
    </vehicle>
    <vehicle id="veh16" type="passenger" depart="47.29" departLane="best">
        <route edges="294294299#0 26321030#0 11962498#0 11962498#1 -11962498#1"/>
    </vehicle>
    <vehicle id="veh18" type="passenger" depart="53.21" departLane="best">
        <route edges="11734345#0 11962498#1 11830680#0 11830680#1 294294299#5"/>
    </vehicle>
    <vehicle id="veh19" type="passenger" depart="56.16" departLane="best">
        <route edges="294294299#0 294294299#3"/>
    </vehicle>
    <vehicle id="veh20" type="passenger" depart="59.12" departLane="best">
        <route edges="11734345#0 -11962498#0"/>
    </vehicle>
    <vehicle id="veh21" type="passenger" depart="62.07" departLane="best">
        <route edges="294294299#0 26321030#0 11962498#0 11962498#1 11962498#2"/>
    </vehicle>
    <vehicle id="veh22" type="passenger" depart="65.03" departLane="best">
        <route edges="294294299#0 -11690285#1"/>
    </vehicle>
    <vehicle id="veh23" type="passenger" depart="67.98" departLane="best">
        <route edges="294294299#0 26321030#0 11962498#0"/>
    </vehicle>
    <vehicle id="veh24" type="passenger" depart="70.94" departLane="best">
        <route edges="11734345#0 -11962498#0 11962498#0"/>
    </vehicle>
    <vehicle id="veh25" type="passenger" depart="73.90" departLane="best">
        <route edges="294294299#0 294294299#3 294294299#4 294294299#5"/>
    </vehicle>
    <vehicle id="veh26" type="passenger" depart="76.85" departLane="best">
        <route edges="294294299#0 294294299#3"/>
    </vehicle>
    <vehicle id="veh27" type="passenger" depart="79.81" departLane="best">
        <route edges="-11962498#2 -11962498#1 -11962498#0 26321030#1"/>
    </vehicle>
    <vehicle id="veh28" type="passenger" depart="82.76" departLane="best">
        <route edges="11734345#0 11962498#1 11830680#0 11830680#1 11830680#2"/>
    </vehicle>
    <vehicle id="veh29" type="passenger" depart="85.72" departLane="best">
        <route edges="11690285#0 11690285#1 26321030#0 11962498#0 11962498#1 11962498#2"/>
    </vehicle>
    <vehicle id="veh31" type="passenger" depart="91.63" departLane="best">
        <route edges="11734345#0 11734345#2"/>
    </vehicle>
    <vehicle id="veh33" type="passenger" depart="97.54" departLane="best">
        <route edges="294294299#0 -11690285#1"/>
    </vehicle>
    <vehicle id="veh35" type="passenger" depart="103.46" departLane="best">
        <route edges="294294299#0 294294299#3 294294299#4 11830680#2"/>
    </vehicle>
    <vehicle id="veh36" type="passenger" depart="106.41" departLane="best">
        <route edges="11734345#0 11962498#1 11830680#0 11830680#1 11830680#2"/>
    </vehicle>
    <vehicle id="veh37" type="passenger" depart="109.37" departLane="best">
        <route edges="294294299#0 26321030#0"/>
    </vehicle>
    <vehicle id="veh39" type="passenger" depart="115.28" departLane="best">
        <route edges="294294299#0 294294299#3 294294299#4 294294299#5"/>
    </vehicle>
    <vehicle id="veh40" type="passenger" depart="118.23" departLane="best">
        <route edges="11734345#0 11962498#1 -11962498#1"/>
    </vehicle>
    <vehicle id="veh41" type="passenger" depart="121.19" departLane="best">
        <route edges="11734345#0 11962498#1 11830680#0 11830680#1 11830680#2"/>
    </vehicle>
    <vehicle id="veh42" type="passenger" depart="124.15" departLane="best">
        <route edges="11962498#1 -11962498#1 -11962498#0 26321030#1"/>
    </vehicle>
    <vehicle id="veh43" type="passenger" depart="127.10" departLane="best">
        <route edges="294294299#0 26321030#0 11962498#0"/>
    </vehicle>
    <vehicle id="veh44" type="passenger" depart="130.06" departLane="best">
        <route edges="294294299#0 26321030#0 26321030#1"/>
    </vehicle>
    <vehicle id="veh46" type="passenger" depart="135.97" departLane="best">
        <route edges="11690285#0 11690285#1 26321030#0 26321030#1"/>
    </vehicle>
    <vehicle id="veh47" type="passenger" depart="138.93" departLane="best">
        <route edges="294294299#0 -11690285#1"/>
    </vehicle>
    <vehicle id="veh48" type="passenger" depart="141.88" departLane="best">
        <route edges="294294299#0 -11690285#1 11690285#1"/>
    </vehicle>
    <vehicle id="veh50" type="passenger" depart="147.79" departLane="best">
        <route edges="294294299#0 26321030#0 11962498#0 11962498#1 -11962498#1"/>
    </vehicle>
    <vehicle id="veh51" type="passenger" depart="150.75" departLane="best">
        <route edges="-11962498#2 -11962498#1 -11962498#0 26321030#1"/>
    </vehicle>
    <vehicle id="veh54" type="passenger" depart="159.62" departLane="best">
        <route edges="294294299#0 26321030#0 11962498#0 11962498#1 11830680#0 11830680#1"/>
    </vehicle>
    <vehicle id="veh55" type="passenger" depart="162.57" departLane="best">
        <route edges="294294299#0 294294299#3 294294299#4 11830680#2"/>
    </vehicle>
    <vehicle id="veh57" type="passenger" depart="168.48" departLane="best">
        <route edges="294294299#0 -11690285#1"/>
    </vehicle>
    <vehicle id="veh58" type="passenger" depart="171.44" departLane="best">
        <route edges="294294299#0 294294299#3 294294299#4 11830680#2"/>
    </vehicle>
    <vehicle id="veh59" type="passenger" depart="174.40" departLane="best">
        <route edges="11734345#0 11962498#1 11830680#0 11830680#1"/>
    </vehicle>
    <vehicle id="veh60" type="passenger" depart="177.35" departLane="best">
        <route edges="294294299#0 26321030#0 11962498#0 11962498#1 11830680#0 11830680#1"/>
    </vehicle>
    <vehicle id="veh61" type="passenger" depart="180.31" departLane="best">
        <route edges="11690285#0 11690285#1 26321030#0 26321030#1"/>
    </vehicle>
    <vehicle id="veh62" type="passenger" depart="183.26" departLane="best">
        <route edges="294294299#0 294294299#3"/>
    </vehicle>
    <vehicle id="veh63" type="passenger" depart="186.22" departLane="best">
        <route edges="11690285#0 11690285#1 26321030#0 26321030#1"/>
    </vehicle>
    <vehicle id="veh65" type="passenger" depart="192.13" departLane="best">
        <route edges="11962498#0 -11962498#0 26321030#1"/>
    </vehicle>
    <vehicle id="veh66" type="passenger" depart="195.09" departLane="best">
        <route edges="294294299#0 26321030#0 11962498#0 11962498#1 11830680#0"/>
    </vehicle>
    <vehicle id="veh67" type="passenger" depart="198.04" departLane="best">
        <route edges="294294299#0 294294299#3"/>
    </vehicle>
    <vehicle id="veh68" type="passenger" depart="201.00" departLane="best">
        <route edges="11734345#0 11734345#2 11734345#3"/>
    </vehicle>
    <vehicle id="veh69" type="passenger" depart="203.95" departLane="best">
        <route edges="294294299#0 -11690285#1 -11690285#0"/>
    </vehicle>
    <vehicle id="veh70" type="passenger" depart="206.91" departLane="best">
        <route edges="294294299#0 26321030#0 11962498#0 11962498#1 11830680#0"/>
    </vehicle>
    <vehicle id="veh71" type="passenger" depart="209.87" departLane="best">
        <route edges="-11690285#1 11690285#1 26321030#0 26321030#1"/>
    </vehicle>
    <vehicle id="veh73" type="passenger" depart="215.78" departLane="best">
        <route edges="294294299#0 26321030#0 11962498#0"/>
    </vehicle>
    <vehicle id="veh74" type="passenger" depart="218.73" departLane="best">
        <route edges="-11690285#1 11690285#1 26321030#0 26321030#1"/>
    </vehicle>
    <vehicle id="veh75" type="passenger" depart="221.69" departLane="best">
        <route edges="11690285#0 11690285#1 26321030#0 26321030#1"/>
    </vehicle>
    <vehicle id="veh76" type="passenger" depart="224.65" departLane="best">
        <route edges="11962498#0 -11962498#0 26321030#1"/>
    </vehicle>
    <vehicle id="veh77" type="passenger" depart="227.60" departLane="best">
        <route edges="294294299#0 -11690285#1 11690285#1"/>
    </vehicle>
    <vehicle id="veh78" type="passenger" depart="230.56" departLane="best">
        <route edges="294294299#0 26321030#0 11962498#0 11962498#1 11830680#0 11830680#1"/>
    </vehicle>
    <vehicle id="veh80" type="passenger" depart="236.47" departLane="best">
        <route edges="294294299#0 294294299#3 294294299#4"/>
    </vehicle>
    <vehicle id="veh81" type="passenger" depart="239.42" departLane="best">
        <route edges="11734345#0 11962498#1 11830680#0"/>
    </vehicle>
    <vehicle id="veh82" type="passenger" depart="242.38" departLane="best">
        <route edges="11734345#0 11734345#2 11734345#3 11734345#4"/>
    </vehicle>
    <vehicle id="veh83" type="passenger" depart="245.34" departLane="best">
        <route edges="294294299#0 26321030#0 11962498#0 11962498#1 11830680#0"/>
    </vehicle>
    <vehicle id="veh84" type="passenger" depart="248.29" departLane="best">
        <route edges="294294299#0 294294299#3 11734345#3"/>
    </vehicle>
    <vehicle id="veh85" type="passenger" depart="251.25" departLane="best">
        <route edges="-11690285#1 11690285#1 26321030#0 26321030#1"/>
    </vehicle>
    <vehicle id="veh86" type="passenger" depart="254.20" departLane="best">
        <route edges="11734345#0 -11962498#0"/>
    </vehicle>
    <vehicle id="veh87" type="passenger" depart="257.16" departLane="best">
        <route edges="294294299#0 -11690285#1"/>
    </vehicle>
    <vehicle id="veh88" type="passenger" depart="260.12" departLane="best">
        <route edges="11734345#0 11962498#1"/>
    </vehicle>
    <vehicle id="veh91" type="passenger" depart="268.98" departLane="best">
        <route edges="294294299#0 294294299#3 294294299#4 294294299#5"/>
    </vehicle>
    <vehicle id="veh93" type="passenger" depart="274.90" departLane="best">
        <route edges="294294299#0 294294299#3 294294299#4 11830680#2"/>
    </vehicle>
    <vehicle id="veh94" type="passenger" depart="277.85" departLane="best">
        <route edges="11734345#0 -11962498#0"/>
    </vehicle>
    <vehicle id="veh95" type="passenger" depart="280.81" departLane="best">
        <route edges="11734345#0 11962498#1 11962498#2"/>
    </vehicle>
    <vehicle id="veh96" type="passenger" depart="283.76" departLane="best">
        <route edges="11734345#0 -11962498#0 11962498#0"/>
    </vehicle>
    <vehicle id="veh97" type="passenger" depart="286.72" departLane="best">
        <route edges="294294299#0 26321030#0 26321030#1"/>
    </vehicle>
    <vehicle id="veh98" type="passenger" depart="289.67" departLane="best">
        <route edges="11690285#1 26321030#0 26321030#1"/>
    </vehicle>
    <vehicle id="veh100" type="passenger" depart="295.59" departLane="best">
        <route edges="294294299#0 -11690285#1 11690285#1"/>
    </vehicle>
    <vehicle id="veh101" type="passenger" depart="298.54" departLane="best">
        <route edges="11734345#0 11734345#2"/>
    </vehicle>
    <vehicle id="veh102" type="passenger" depart="301.50" departLane="best">
        <route edges="11962498#1 -11962498#1 -11962498#0 26321030#1"/>
    </vehicle>
    <vehicle id="veh103" type="passenger" depart="304.45" departLane="best">
        <route edges="-11690285#1 11690285#1 26321030#0 26321030#1"/>
    </vehicle>
    <vehicle id="veh104" type="passenger" depart="307.41" departLane="best">
        <route edges="294294299#0 26321030#0 11962498#0"/>
    </vehicle>
    <vehicle id="veh106" type="passenger" depart="313.32" departLane="best">
        <route edges="11734345#0 -11962498#0 11962498#0"/>
    </vehicle>
    <vehicle id="veh107" type="passenger" depart="316.28" departLane="best">
        <route edges="294294299#0 26321030#0"/>
    </vehicle>
    <vehicle id="veh108" type="passenger" depart="319.23" departLane="best">
        <route edges="11734345#0 11734345#2 11734345#3"/>
    </vehicle>
    <vehicle id="veh109" type="passenger" depart="322.19" departLane="best">
        <route edges="294294299#0 294294299#3"/>
    </vehicle>
    <vehicle id="veh110" type="passenger" depart="325.14" departLane="best">
        <route edges="11734345#0 11962498#1 -11962498#1"/>
    </vehicle>
    <vehicle id="veh111" type="passenger" depart="328.10" departLane="best">
        <route edges="294294299#0 26321030#0"/>
    </vehicle>
    <vehicle id="veh112" type="passenger" depart="331.06" departLane="best">
        <route edges="294294299#0 294294299#3 11734345#3"/>
    </vehicle>
    <vehicle id="veh113" type="passenger" depart="334.01" departLane="best">
        <route edges="11734345#0 11962498#1 11830680#0 11830680#1 11830680#2"/>
    </vehicle>
    <vehicle id="veh115" type="passenger" depart="339.92" departLane="best">
        <route edges="294294299#0 294294299#3 294294299#4 11830680#2"/>
    </vehicle>
    <vehicle id="veh116" type="passenger" depart="342.88" departLane="best">
        <route edges="294294299#0 26321030#0 11962498#0 11734345#2"/>
    </vehicle>
    <vehicle id="veh119" type="passenger" depart="351.75" departLane="best">
        <route edges="11962498#0 -11962498#0 26321030#1"/>
    </vehicle>
    <vehicle id="veh120" type="passenger" depart="354.70" departLane="best">
        <route edges="294294299#0 26321030#0 11962498#0 11962498#1 11962498#2"/>
    </vehicle>
    <vehicle id="veh121" type="passenger" depart="357.66" departLane="best">
        <route edges="294294299#0 294294299#3 294294299#4 11830680#2"/>
    </vehicle>
    <vehicle id="veh123" type="passenger" depart="363.57" departLane="best">
        <route edges="11734345#0 11962498#1 11830680#0"/>
    </vehicle>
    <vehicle id="veh127" type="passenger" depart="375.39" departLane="best">
        <route edges="294294299#0 294294299#3 11734345#3"/>
    </vehicle>
    <vehicle id="veh130" type="passenger" depart="384.26" departLane="best">
        <route edges="294294299#0 294294299#3 11734345#3"/>
    </vehicle>
    <vehicle id="veh131" type="passenger" depart="387.22" departLane="best">
        <route edges="11734345#0 11734345#2 11734345#3 11734345#4"/>
    </vehicle>
    <vehicle id="veh133" type="passenger" depart="393.13" departLane="best">
        <route edges="11734345#0 11962498#1"/>
    </vehicle>
    <vehicle id="veh134" type="passenger" depart="396.09" departLane="best">
        <route edges="11734345#0 11962498#1 11830680#0 11830680#1 11830680#2"/>
    </vehicle>
    <vehicle id="veh135" type="passenger" depart="399.04" departLane="best">
        <route edges="294294299#0 26321030#0 11962498#0 11962498#1 11830680#0"/>
    </vehicle>
    <vehicle id="veh136" type="passenger" depart="402.00" departLane="best">
        <route edges="294294299#0 294294299#3 11734345#3"/>
    </vehicle>
    <vehicle id="veh137" type="passenger" depart="404.95" departLane="best">
        <route edges="294294299#0 26321030#0 11962498#0 11962498#1 11962498#2"/>
    </vehicle>
    <vehicle id="veh138" type="passenger" depart="407.91" departLane="best">
        <route edges="-11962498#1 -11962498#0 26321030#1"/>
    </vehicle>
    <vehicle id="veh141" type="passenger" depart="416.78" departLane="best">
        <route edges="11734345#0 11962498#1 11830680#0 11830680#1 11830680#2"/>
    </vehicle>
    <vehicle id="veh142" type="passenger" depart="419.73" departLane="best">
        <route edges="11734345#0 -11962498#0 11962498#0"/>
    </vehicle>
    <vehicle id="veh143" type="passenger" depart="422.69" departLane="best">
        <route edges="11734345#0 11734345#2 11734345#3 11734345#4"/>
    </vehicle>
    <vehicle id="veh144" type="passenger" depart="425.64" departLane="best">
        <route edges="11690285#1 26321030#0 26321030#1"/>
    </vehicle>
    <vehicle id="veh145" type="passenger" depart="428.60" departLane="best">
        <route edges="11690285#1 26321030#0 26321030#1"/>
    </vehicle>
    <vehicle id="veh146" type="passenger" depart="431.56" departLane="best">
        <route edges="11734345#0 11962498#1"/>
    </vehicle>
    <vehicle id="veh147" type="passenger" depart="434.51" departLane="best">
        <route edges="294294299#0 26321030#0 11962498#0 -11962498#0"/>
    </vehicle>
    <vehicle id="veh152" type="passenger" depart="449.29" departLane="best">
        <route edges="11734345#0 11734345#2 294294299#4"/>
    </vehicle>
    <vehicle id="veh153" type="passenger" depart="452.25" departLane="best">
        <route edges="294294299#0 26321030#0 11962498#0 11962498#1 11830680#0 11830680#1"/>
    </vehicle>
    <vehicle id="veh154" type="passenger" depart="455.20" departLane="best">
        <route edges="294294299#0 26321030#0 11962498#0 11962498#1 -11962498#1"/>
    </vehicle>
    <vehicle id="veh155" type="passenger" depart="458.16" departLane="best">
        <route edges="11734345#0 11962498#1 11830680#0 11830680#1"/>
    </vehicle>
    <vehicle id="veh156" type="passenger" depart="461.11" departLane="best">
        <route edges="294294299#0 294294299#3 294294299#4"/>
    </vehicle>
    <vehicle id="veh157" type="passenger" depart="464.07" departLane="best">
        <route edges="294294299#0 26321030#0 11962498#0 11962498#1 11830680#0 11830680#1"/>
    </vehicle>
    <vehicle id="veh158" type="passenger" depart="467.03" departLane="best">
        <route edges="11734345#0 11962498#1 11830680#0 11830680#1"/>
    </vehicle>
    <vehicle id="veh159" type="passenger" depart="469.98" departLane="best">
        <route edges="294294299#0 -11690285#1"/>
    </vehicle>
    <vehicle id="veh161" type="passenger" depart="475.89" departLane="best">
        <route edges="294294299#0 294294299#3 294294299#4"/>
    </vehicle>
    <vehicle id="veh162" type="passenger" depart="478.85" departLane="best">
        <route edges="11734345#0 11962498#1"/>
    </vehicle>
    <vehicle id="veh166" type="passenger" depart="490.67" departLane="best">
        <route edges="11690285#0 11690285#1 26321030#0 26321030#1"/>
    </vehicle>
    <vehicle id="veh167" type="passenger" depart="493.63" departLane="best">
        <route edges="294294299#0 294294299#3 294294299#4"/>
    </vehicle>
    <vehicle id="veh169" type="passenger" depart="499.54" departLane="best">
        <route edges="294294299#0 -11690285#1"/>
    </vehicle>
    <vehicle id="veh170" type="passenger" depart="502.50" departLane="best">
        <route edges="11734345#0 11962498#1 11830680#0 11830680#1 11830680#2"/>
    </vehicle>
    <vehicle id="veh173" type="passenger" depart="511.36" departLane="best">
        <route edges="-11962498#1 -11962498#0 26321030#1"/>
    </vehicle>
    <vehicle id="veh174" type="passenger" depart="514.32" departLane="best">
        <route edges="294294299#0 294294299#3 294294299#4"/>
    </vehicle>
    <vehicle id="veh175" type="passenger" depart="517.28" departLane="best">
        <route edges="11734345#0 -11962498#0 11962498#0"/>
    </vehicle>
    <vehicle id="veh176" type="passenger" depart="520.23" departLane="best">
        <route edges="-11690285#1 11690285#1 26321030#0 26321030#1"/>
    </vehicle>
    <vehicle id="veh177" type="passenger" depart="523.19" departLane="best">
        <route edges="11962498#0 -11962498#0 26321030#1"/>
    </vehicle>
    <vehicle id="veh178" type="passenger" depart="526.14" departLane="best">
        <route edges="11734345#0 11734345#2 11734345#3 11734345#4"/>
    </vehicle>
    <vehicle id="veh179" type="passenger" depart="529.10" departLane="best">
        <route edges="11734345#0 11962498#1 11830680#0 11830680#1 11830680#2"/>
    </vehicle>
    <vehicle id="veh180" type="passenger" depart="532.05" departLane="best">
        <route edges="11734345#0 11962498#1 11830680#0 11830680#1 11830680#2"/>
    </vehicle>
    <vehicle id="veh181" type="passenger" depart="535.01" departLane="best">
        <route edges="294294299#0 294294299#3"/>
    </vehicle>
    <vehicle id="veh182" type="passenger" depart="537.97" departLane="best">
        <route edges="11690285#0 11690285#1 26321030#0 26321030#1"/>
    </vehicle>
    <vehicle id="veh183" type="passenger" depart="540.92" departLane="best">
        <route edges="11734345#0 11734345#2 294294299#4"/>
    </vehicle>
    <vehicle id="veh185" type="passenger" depart="546.83" departLane="best">
        <route edges="11734345#0 -11962498#0"/>
    </vehicle>
    <vehicle id="veh187" type="passenger" depart="552.75" departLane="best">
        <route edges="11690285#0 11690285#1 26321030#0 11962498#0 11962498#1 11962498#2"/>
    </vehicle>
    <vehicle id="veh188" type="passenger" depart="555.70" departLane="best">
        <route edges="11690285#0 11690285#1 26321030#0 11962498#0 11962498#1 11962498#2"/>
    </vehicle>
    <vehicle id="veh189" type="passenger" depart="558.66" departLane="best">
        <route edges="26321030#0 26321030#1"/>
    </vehicle>
    <vehicle id="veh190" type="passenger" depart="561.61" departLane="best">
        <route edges="11734345#0 11962498#1 11830680#0 11830680#1"/>
    </vehicle>
    <vehicle id="veh191" type="passenger" depart="564.57" departLane="best">
        <route edges="11734345#0 11962498#1 11830680#0 11830680#1"/>
    </vehicle>
    <vehicle id="veh193" type="passenger" depart="570.48" departLane="best">
        <route edges="11734345#0 11734345#2 294294299#4"/>
    </vehicle>
    <vehicle id="veh195" type="passenger" depart="576.39" departLane="best">
        <route edges="294294299#0 26321030#0 11962498#0 11962498#1"/>
    </vehicle>
    <vehicle id="veh196" type="passenger" depart="579.35" departLane="best">
        <route edges="11962498#1 -11962498#1 -11962498#0 26321030#1"/>
    </vehicle>
    <vehicle id="veh197" type="passenger" depart="582.30" departLane="best">
        <route edges="294294299#0 26321030#0 11962498#0 11962498#1 -11962498#1"/>
    </vehicle>
    <vehicle id="veh198" type="passenger" depart="585.26" departLane="best">
        <route edges="294294299#0 26321030#0 11962498#0"/>
    </vehicle>
    <vehicle id="veh199" type="passenger" depart="588.22" departLane="best">
        <route edges="294294299#0 26321030#0 11962498#0 11962498#1 11830680#0 11830680#1"/>
    </vehicle>
    <vehicle id="veh200" type="passenger" depart="591.17" departLane="best">
        <route edges="294294299#0 26321030#0"/>
    </vehicle>
    <vehicle id="veh201" type="passenger" depart="594.13" departLane="best">
        <route edges="11690285#0 11690285#1 26321030#0 26321030#1"/>
    </vehicle>
    <vehicle id="veh202" type="passenger" depart="597.08" departLane="best">
        <route edges="294294299#0 294294299#3 294294299#4 294294299#5"/>
    </vehicle>
    <vehicle id="veh203" type="passenger" depart="600.04" departLane="best">
        <route edges="294294299#0 26321030#0 11962498#0 -11962498#0"/>
    </vehicle>
    <vehicle id="veh204" type="passenger" depart="603.00" departLane="best">
        <route edges="294294299#0 -11690285#1 11690285#1"/>
    </vehicle>
    <vehicle id="veh205" type="passenger" depart="605.95" departLane="best">
        <route edges="11962498#1 -11962498#1 -11962498#0 26321030#1"/>
    </vehicle>
    <vehicle id="veh206" type="passenger" depart="608.91" departLane="best">
        <route edges="294294299#0 -11690285#1"/>
    </vehicle>
    <vehicle id="veh208" type="passenger" depart="614.82" departLane="best">
        <route edges="11690285#0 11690285#1 26321030#0 26321030#1"/>
    </vehicle>
    <vehicle id="veh209" type="passenger" depart="617.77" departLane="best">
        <route edges="11734345#0 11734345#2 294294299#4"/>
    </vehicle>
    <vehicle id="veh210" type="passenger" depart="620.73" departLane="best">
        <route edges="11734345#0 11962498#1 11830680#0 11830680#1 294294299#5"/>
    </vehicle>
    <vehicle id="veh211" type="passenger" depart="623.69" departLane="best">
        <route edges="294294299#0 294294299#3 294294299#4 11830680#2"/>
    </vehicle>
    <vehicle id="veh212" type="passenger" depart="626.64" departLane="best">
        <route edges="11734345#0 11962498#1"/>
    </vehicle>
    <vehicle id="veh213" type="passenger" depart="629.60" departLane="best">
        <route edges="-11962498#2 -11962498#1 -11962498#0 26321030#1"/>
    </vehicle>
    <vehicle id="veh215" type="passenger" depart="635.51" departLane="best">
        <route edges="294294299#0 -11690285#1"/>
    </vehicle>
    <vehicle id="veh217" type="passenger" depart="641.42" departLane="best">
        <route edges="294294299#0 -11690285#1 11690285#1"/>
    </vehicle>
    <vehicle id="veh218" type="passenger" depart="644.38" departLane="best">
        <route edges="294294299#0 294294299#3 294294299#4 11830680#2"/>
    </vehicle>
    <vehicle id="veh219" type="passenger" depart="647.33" departLane="best">
        <route edges="11734345#0 11962498#1 11830680#0 11830680#1"/>
    </vehicle>
    <vehicle id="veh220" type="passenger" depart="650.29" departLane="best">
        <route edges="294294299#0 294294299#3 11734345#3"/>
    </vehicle>
    <vehicle id="veh221" type="passenger" depart="653.25" departLane="best">
        <route edges="294294299#0 294294299#3"/>
    </vehicle>
    <vehicle id="veh222" type="passenger" depart="656.20" departLane="best">
        <route edges="11734345#0 11962498#1 11830680#0 11830680#1 11830680#2"/>
    </vehicle>
    <vehicle id="veh223" type="passenger" depart="659.16" departLane="best">
        <route edges="11962498#0 -11962498#0 26321030#1"/>
    </vehicle>
    <vehicle id="veh224" type="passenger" depart="662.11" departLane="best">
        <route edges="294294299#0 294294299#3 11734345#3"/>
    </vehicle>
    <vehicle id="veh225" type="passenger" depart="665.07" departLane="best">
        <route edges="11734345#0 11962498#1 11830680#0 11830680#1"/>
    </vehicle>
    <vehicle id="veh226" type="passenger" depart="668.02" departLane="best">
        <route edges="11734345#0 11962498#1 11830680#0"/>
    </vehicle>
    <vehicle id="veh228" type="passenger" depart="673.94" departLane="best">
        <route edges="294294299#0 294294299#3 294294299#4 294294299#5"/>
    </vehicle>
    <vehicle id="veh229" type="passenger" depart="676.89" departLane="best">
        <route edges="-11962498#1 -11962498#0 26321030#1"/>
    </vehicle>
    <vehicle id="veh230" type="passenger" depart="679.85" departLane="best">
        <route edges="11734345#0 -11962498#0 11962498#0"/>
    </vehicle>
    <vehicle id="veh231" type="passenger" depart="682.80" departLane="best">
        <route edges="11690285#0 11690285#1 26321030#0 26321030#1"/>
    </vehicle>
    <vehicle id="veh232" type="passenger" depart="685.76" departLane="best">
        <route edges="294294299#0 294294299#3 11734345#3"/>
    </vehicle>
    <vehicle id="veh233" type="passenger" depart="688.72" departLane="best">
        <route edges="26321030#0 26321030#1"/>
    </vehicle>
    <vehicle id="veh234" type="passenger" depart="691.67" departLane="best">
        <route edges="11734345#0 11962498#1 11830680#0 11830680#1 11830680#2"/>
    </vehicle>
    <vehicle id="veh235" type="passenger" depart="694.63" departLane="best">
        <route edges="294294299#0 294294299#3"/>
    </vehicle>
    <vehicle id="veh236" type="passenger" depart="697.58" departLane="best">
        <route edges="294294299#0 26321030#0 11962498#0 11962498#1 11830680#0 11830680#1"/>
    </vehicle>
    <vehicle id="veh237" type="passenger" depart="700.54" departLane="best">