<?xml version="1.0" encoding="UTF-8"?>
<!-- generated on 2018-06-26 12:18:37.679988 by $Id$ via randomTrips.py
  options: 
-->
<routes xmlns:xsi="http://www.w3.org/2001/XMLSchema-instance" xsi:noNamespaceSchemaLocation="http://sumo.dlr.de/xsd/routes_file.xsd">
    <vType id="passenger" speedDev="0.10" vClass="passenger">
    </vType>
    <trip id="veh0" depart="0.00" departLane="best" from="294294299#0" to="11962498#0" type="passenger"/>
    <trip id="veh1" depart="2.96" departLane="best" from="11734345#0" to="11830680#2" type="passenger"/>
    <trip id="veh2" depart="5.91" departLane="best" from="294294299#0" to="11962498#0" type="passenger"/>
    <trip id="veh3" depart="8.87" departLane="best" from="294294299#0" to="11830680#2" type="passenger"/>
    <trip id="veh4" depart="11.82" departLane="best" from="11734345#0" to="-11962498#1" type="passenger"/>
    <trip id="veh5" depart="14.78" departLane="best" from="294294299#0" to="26321030#0" type="passenger"/>
    <trip id="veh7" depart="20.69" departLane="best" from="294294299#0" to="11734345#2" type="passenger"/>
    <trip id="veh9" depart="26.60" departLane="best" from="294294299#0" to="11734345#2" type="passenger"/>
    <trip id="veh10" depart="29.56" departLane="best" from="294294299#0" to="26321030#1" type="passenger"/>
    <trip id="veh11" depart="32.51" departLane="best" from="294294299#0" to="294294299#4" type="passenger"/>
    <trip id="veh12" depart="35.47" departLane="best" from="294294299#0" to="-11690285#1" type="passenger"/>
    <trip id="veh13" depart="38.43" departLane="best" from="11734345#0" to="11734345#3" type="passenger"/>
    <trip id="veh14" depart="41.38" departLane="best" from="294294299#0" to="11690285#1" type="passenger"/>
    <trip id="veh16" depart="47.29" departLane="best" from="294294299#0" to="-11962498#1" type="passenger"/>
    <trip id="veh18" depart="53.21" departLane="best" from="11734345#0" to="294294299#5" type="passenger"/>
    <trip id="veh19" depart="56.16" departLane="best" from="294294299#0" to="294294299#3" type="passenger"/>
    <trip id="veh20" depart="59.12" departLane="best" from="11734345#0" to="-11962498#0" type="passenger"/>
    <trip id="veh21" depart="62.07" departLane="best" from="294294299#0" to="11962498#2" type="passenger"/>
    <trip id="veh22" depart="65.03" departLane="best" from="294294299#0" to="-11690285#1" type="passenger"/>
    <trip id="veh23" depart="67.98" departLane="best" from="294294299#0" to="11962498#0" type="passenger"/>
    <trip id="veh24" depart="70.94" departLane="best" from="11734345#0" to="11962498#0" type="passenger"/>
    <trip id="veh25" depart="73.90" departLane="best" from="294294299#0" to="294294299#5" type="passenger"/>
    <trip id="veh26" depart="76.85" departLane="best" from="294294299#0" to="294294299#3" type="passenger"/>
    <trip id="veh27" depart="79.81" departLane="best" from="-11962498#2" to="26321030#1" type="passenger"/>
    <trip id="veh28" depart="82.76" departLane="best" from="11734345#0" to="11830680#2" type="passenger"/>
    <trip id="veh29" depart="85.72" departLane="best" from="11690285#0" to="11962498#2" type="passenger"/>
    <trip id="veh31" depart="91.63" departLane="best" from="11734345#0" to="11734345#2" type="passenger"/>
    <trip id="veh33" depart="97.54" departLane="best" from="294294299#0" to="-11690285#1" type="passenger"/>
    <trip id="veh35" depart="103.46" departLane="best" from="294294299#0" to="11830680#2" type="passenger"/>
    <trip id="veh36" depart="106.41" departLane="best" from="11734345#0" to="11830680#2" type="passenger"/>
    <trip id="veh37" depart="109.37" departLane="best" from="294294299#0" to="26321030#0" type="passenger"/>
    <trip id="veh39" depart="115.28" departLane="best" from="294294299#0" to="294294299#5" type="passenger"/>
    <trip id="veh40" depart="118.23" departLane="best" from="11734345#0" to="-11962498#1" type="passenger"/>
    <trip id="veh41" depart="121.19" departLane="best" from="11734345#0" to="11830680#2" type="passenger"/>
    <trip id="veh42" depart="124.15" departLane="best" from="11962498#1" to="26321030#1" type="passenger"/>
    <trip id="veh43" depart="127.10" departLane="best" from="294294299#0" to="11962498#0" type="passenger"/>
    <trip id="veh44" depart="130.06" departLane="best" from="294294299#0" to="26321030#1" type="passenger"/>
    <trip id="veh46" depart="135.97" departLane="best" from="11690285#0" to="26321030#1" type="passenger"/>
    <trip id="veh47" depart="138.93" departLane="best" from="294294299#0" to="-11690285#1" type="passenger"/>
    <trip id="veh48" depart="141.88" departLane="best" from="294294299#0" to="11690285#1" type="passenger"/>
    <trip id="veh50" depart="147.79" departLane="best" from="294294299#0" to="-11962498#1" type="passenger"/>
    <trip id="veh51" depart="150.75" departLane="best" from="-11962498#2" to="26321030#1" type="passenger"/>
    <trip id="veh54" depart="159.62" departLane="best" from="294294299#0" to="11830680#1" type="passenger"/>
    <trip id="veh55" depart="162.57" departLane="best" from="294294299#0" to="11830680#2" type="passenger"/>
    <trip id="veh57" depart="168.48" departLane="best" from="294294299#0" to="-11690285#1" type="passenger"/>
    <trip id="veh58" depart="171.44" departLane="best" from="294294299#0" to="11830680#2" type="passenger"/>
    <trip id="veh59" depart="174.40" departLane="best" from="11734345#0" to="11830680#1" type="passenger"/>
    <trip id="veh60" depart="177.35" departLane="best" from="294294299#0" to="11830680#1" type="passenger"/>
    <trip id="veh61" depart="180.31" departLane="best" from="11690285#0" to="26321030#1" type="passenger"/>
    <trip id="veh62" depart="183.26" departLane="best" from="294294299#0" to="294294299#3" type="passenger"/>
    <trip id="veh63" depart="186.22" departLane="best" from="11690285#0" to="26321030#1" type="passenger"/>
    <trip id="veh65" depart="192.13" departLane="best" from="11962498#0" to="26321030#1" type="passenger"/>
    <trip id="veh66" depart="195.09" departLane="best" from="294294299#0" to="11830680#0" type="passenger"/>
    <trip id="veh67" depart="198.04" departLane="best" from="294294299#0" to="294294299#3" type="passenger"/>
    <trip id="veh68" depart="201.00" departLane="best" from="11734345#0" to="11734345#3" type="passenger"/>
    <trip id="veh69" depart="203.95" departLane="best" from="294294299#0" to="-11690285#0" type="passenger"/>
    <trip id="veh70" depart="206.91" departLane="best" from="294294299#0" to="11830680#0" type="passenger"/>
    <trip id="veh71" depart="209.87" departLane="best" from="-11690285#1" to="26321030#1" type="passenger"/>
    <trip id="veh73" depart="215.78" departLane="best" from="294294299#0" to="11962498#0" type="passenger"/>
    <trip id="veh74" depart="218.73" departLane="best" from="-11690285#1" to="26321030#1" type="passenger"/>
    <trip id="veh75" depart="221.69" departLane="best" from="11690285#0" to="26321030#1" type="passenger"/>
    <trip id="veh76" depart="224.65" departLane="best" from="11962498#0" to="26321030#1" type="passenger"/>
    <trip id="veh77" depart="227.60" departLane="best" from="294294299#0" to="11690285#1" type="passenger"/>
    <trip id="veh78" depart="230.56" departLane="best" from="294294299#0" to="11830680#1" type="passenger"/>
    <trip id="veh80" depart="236.47" departLane="best" from="294294299#0" to="294294299#4" type="passenger"/>
    <trip id="veh81" depart="239.42" departLane="best" from="11734345#0" to="11830680#0" type="passenger"/>
    <trip id="veh82" depart="242.38" departLane="best" from="11734345#0" to="11734345#4" type="passenger"/>
    <trip id="veh83" depart="245.34" departLane="best" from="294294299#0" to="11830680#0" type="passenger"/>
    <trip id="veh84" depart="248.29" departLane="best" from="294294299#0" to="11734345#3" type="passenger"/>
    <trip id="veh85" depart="251.25" departLane="best" from="-11690285#1" to="26321030#1" type="passenger"/>
    <trip id="veh86" depart="254.20" departLane="best" from="11734345#0" to="-11962498#0" type="passenger"/>
    <trip id="veh87" depart="257.16" departLane="best" from="294294299#0" to="-11690285#1" type="passenger"/>
    <trip id="veh88" depart="260.12" departLane="best" from="11734345#0" to="11962498#1" type="passenger"/>
    <trip id="veh91" depart="268.98" departLane="best" from="294294299#0" to="294294299#5" type="passenger"/>
    <trip id="veh93" depart="274.90" departLane="best" from="294294299#0" to="11830680#2" type="passenger"/>
    <trip id="veh94" depart="277.85" departLane="best" from="11734345#0" to="-11962498#0" type="passenger"/>
    <trip id="veh95" depart="280.81" departLane="best" from="11734345#0" to="11962498#2" type="passenger"/>
    <trip id="veh96" depart="283.76" departLane="best" from="11734345#0" to="11962498#0" type="passenger"/>
    <trip id="veh97" depart="286.72" departLane="best" from="294294299#0" to="26321030#1" type="passenger"/>
    <trip id="veh98" depart="289.67" departLane="best" from="11690285#1" to="26321030#1" type="passenger"/>
    <trip id="veh100" depart="295.59" departLane="best" from="294294299#0" to="11690285#1" type="passenger"/>
    <trip id="veh101" depart="298.54" departLane="best" from="11734345#0" to="11734345#2" type="passenger"/>
    <trip id="veh102" depart="301.50" departLane="best" from="11962498#1" to="26321030#1" type="passenger"/>
    <trip id="veh103" depart="304.45" departLane="best" from="-11690285#1" to="26321030#1" type="passenger"/>
    <trip id="veh104" depart="307.41" departLane="best" from="294294299#0" to="11962498#0" type="passenger"/>
    <trip id="veh106" depart="313.32" departLane="best" from="11734345#0" to="11962498#0" type="passenger"/>
    <trip id="veh107" depart="316.28" departLane="best" from="294294299#0" to="26321030#0" type="passenger"/>
    <trip id="veh108" depart="319.23" departLane="best" from="11734345#0" to="11734345#3" type="passenger"/>
    <trip id="veh109" depart="322.19" departLane="best" from="294294299#0" to="294294299#3" type="passenger"/>
    <trip id="veh110" depart="325.14" departLane="best" from="11734345#0" to="-11962498#1" type="passenger"/>
    <trip id="veh111" depart="328.10" departLane="best" from="294294299#0" to="26321030#0" type="passenger"/>
    <trip id="veh112" depart="331.06" departLane="best" from="294294299#0" to="11734345#3" type="passenger"/>
    <trip id="veh113" depart="334.01" departLane="best" from="11734345#0" to="11830680#2" type="passenger"/>
    <trip id="veh115" depart="339.92" departLane="best" from="294294299#0" to="11830680#2" type="passenger"/>
    <trip id="veh116" depart="342.88" departLane="best" from="294294299#0" to="11734345#2" type="passenger"/>
    <trip id="veh119" depart="351.75" departLane="best" from="11962498#0" to="26321030#1" type="passenger"/>
    <trip id="veh120" depart="354.70" departLane="best" from="294294299#0" to="11962498#2" type="passenger"/>
    <trip id="veh121" depart="357.66" departLane="best" from="294294299#0" to="11830680#2" type="passenger"/>
    <trip id="veh123" depart="363.57" departLane="best" from="11734345#0" to="11830680#0" type="passenger"/>
    <trip id="veh127" depart="375.39" departLane="best" from="294294299#0" to="11734345#3" type="passenger"/>
    <trip id="veh130" depart="384.26" departLane="best" from="294294299#0" to="11734345#3" type="passenger"/>
    <trip id="veh131" depart="387.22" departLane="best" from="11734345#0" to="11734345#4" type="passenger"/>
    <trip id="veh133" depart="393.13" departLane="best" from="11734345#0" to="11962498#1" type="passenger"/>
    <trip id="veh134" depart="396.09" departLane="best" from="11734345#0" to="11830680#2" type="passenger"/>
    <trip id="veh135" depart="399.04" departLane="best" from="294294299#0" to="11830680#0" type="passenger"/>
    <trip id="veh136" depart="402.00" departLane="best" from="294294299#0" to="11734345#3" type="passenger"/>
    <trip id="veh137" depart="404.95" departLane="best" from="294294299#0" to="11962498#2" type="passenger"/>
    <trip id="veh138" depart="407.91" departLane="best" from="-11962498#1" to="26321030#1" type="passenger"/>
    <trip id="veh141" depart="416.78" departLane="best" from="11734345#0" to="11830680#2" type="passenger"/>
    <trip id="veh142" depart="419.73" departLane="best" from="11734345#0" to="11962498#0" type="passenger"/>
    <trip id="veh143" depart="422.69" departLane="best" from="11734345#0" to="11734345#4" type="passenger"/>
    <trip id="veh144" depart="425.64" departLane="best" from="11690285#1" to="26321030#1" type="passenger"/>
    <trip id="veh145" depart="428.60" departLane="best" from="11690285#1" to="26321030#1" type="passenger"/>
    <trip id="veh146" depart="431.56" departLane="best" from="11734345#0" to="11962498#1" type="passenger"/>
    <trip id="veh147" depart="434.51" departLane="best" from="294294299#0" to="-11962498#0" type="passenger"/>
    <trip id="veh152" depart="449.29" departLane="best" from="11734345#0" to="294294299#4" type="passenger"/>
    <trip id="veh153" depart="452.25" departLane="best" from="294294299#0" to="11830680#1" type="passenger"/>
    <trip id="veh154" depart="455.20" departLane="best" from="294294299#0" to="-11962498#1" type="passenger"/>
    <trip id="veh155" depart="458.16" departLane="best" from="11734345#0" to="11830680#1" type="passenger"/>
    <trip id="veh156" depart="461.11" departLane="best" from="294294299#0" to="294294299#4" type="passenger"/>
    <trip id="veh157" depart="464.07" departLane="best" from="294294299#0" to="11830680#1" type="passenger"/>
    <trip id="veh158" depart="467.03" departLane="best" from="11734345#0" to="11830680#1" type="passenger"/>
    <trip id="veh159" depart="469.98" departLane="best" from="294294299#0" to="-11690285#1" type="passenger"/>
    <trip id="veh161" depart="475.89" departLane="best" from="294294299#0" to="294294299#4" type="passenger"/>
    <trip id="veh162" depart="478.85" departLane="best" from="11734345#0" to="11962498#1" type="passenger"/>
    <trip id="veh166" depart="490.67" departLane="best" from="11690285#0" to="26321030#1" type="passenger"/>
    <trip id="veh167" depart="493.63" departLane="best" from="294294299#0" to="294294299#4" type="passenger"/>
    <trip id="veh169" depart="499.54" departLane="best" from="294294299#0" to="-11690285#1" type="passenger"/>
    <trip id="veh170" depart="502.50" departLane="best" from="11734345#0" to="11830680#2" type="passenger"/>
    <trip id="veh173" depart="511.36" departLane="best" from="-11962498#1" to="26321030#1" type="passenger"/>
    <trip id="veh174" depart="514.32" departLane="best" from="294294299#0" to="294294299#4" type="passenger"/>
    <trip id="veh175" depart="517.28" departLane="best" from="11734345#0" to="11962498#0" type="passenger"/>
    <trip id="veh176" depart="520.23" departLane="best" from="-11690285#1" to="26321030#1" type="passenger"/>
    <trip id="veh177" depart="523.19" departLane="best" from="11962498#0" to="26321030#1" type="passenger"/>
    <trip id="veh178" depart="526.14" departLane="best" from="11734345#0" to="11734345#4" type="passenger"/>
    <trip id="veh179" depart="529.10" departLane="best" from="11734345#0" to="11830680#2" type="passenger"/>
    <trip id="veh180" depart="532.05" departLane="best" from="11734345#0" to="11830680#2" type="passenger"/>
    <trip id="veh181" depart="535.01" departLane="best" from="294294299#0" to="294294299#3" type="passenger"/>
    <trip id="veh182" depart="537.97" departLane="best" from="11690285#0" to="26321030#1" type="passenger"/>
    <trip id="veh183" depart="540.92" departLane="best" from="11734345#0" to="294294299#4" type="passenger"/>
    <trip id="veh185" depart="546.83" departLane="best" from="11734345#0" to="-11962498#0" type="passenger"/>
    <trip id="veh187" depart="552.75" departLane="best" from="11690285#0" to="11962498#2" type="passenger"/>
    <trip id="veh188" depart="555.70" departLane="best" from="11690285#0" to="11962498#2" type="passenger"/>
    <trip id="veh189" depart="558.66" departLane="best" from="26321030#0" to="26321030#1" type="passenger"/>
    <trip id="veh190" depart="561.61" departLane="best" from="11734345#0" to="11830680#1" type="passenger"/>
    <trip id="veh191" depart="564.57" departLane="best" from="11734345#0" to="11830680#1" type="passenger"/>
    <trip id="veh193" depart="570.48" departLane="best" from="11734345#0" to="294294299#4" type="passenger"/>
    <trip id="veh195" depart="576.39" departLane="best" from="294294299#0" to="11962498#1" type="passenger"/>
    <trip id="veh196" depart="579.35" departLane="best" from="11962498#1" to="26321030#1" type="passenger"/>
    <trip id="veh197" depart="582.30" departLane="best" from="294294299#0" to="-11962498#1" type="passenger"/>
    <trip id="veh198" depart="585.26" departLane="best" from="294294299#0" to="11962498#0" type="passenger"/>
    <trip id="veh199" depart="588.22" departLane="best" from="294294299#0" to="11830680#1" type="passenger"/>
    <trip id="veh200" depart="591.17" departLane="best" from="294294299#0" to="26321030#0" type="passenger"/>
    <trip id="veh201" depart="594.13" departLane="best" from="11690285#0" to="26321030#1" type="passenger"/>
    <trip id="veh202" depart="597.08" departLane="best" from="294294299#0" to="294294299#5" type="passenger"/>
    <trip id="veh203" depart="600.04" departLane="best" from="294294299#0" to="-11962498#0" type="passenger"/>
    <trip id="veh204" depart="603.00" departLane="best" from="294294299#0" to="11690285#1" type="passenger"/>
    <trip id="veh205" depart="605.95" departLane="best" from="11962498#1" to="26321030#1" type="passenger"/>
    <trip id="veh206" depart="608.91" departLane="best" from="294294299#0" to="-11690285#1" type="passenger"/>
    <trip id="veh208" depart="614.82" departLane="best" from="11690285#0" to="26321030#1" type="passenger"/>
    <trip id="veh209" depart="617.77" departLane="best" from="11734345#0" to="294294299#4" type="passenger"/>
    <trip id="veh210" depart="620.73" departLane="best" from="11734345#0" to="294294299#5" type="passenger"/>
    <trip id="veh211" depart="623.69" departLane="best" from="294294299#0" to="11830680#2" type="passenger"/>
    <trip id="veh212" depart="626.64" departLane="best" from="11734345#0" to="11962498#1" type="passenger"/>
    <trip id="veh213" depart="629.60" departLane="best" from="-11962498#2" to="26321030#1" type="passenger"/>
    <trip id="veh215" depart="635.51" departLane="best" from="294294299#0" to="-11690285#1" type="passenger"/>
    <trip id="veh217" depart="641.42" departLane="best" from="294294299#0" to="11690285#1" type="passenger"/>
    <trip id="veh218" depart="644.38" departLane="best" from="294294299#0" to="11830680#2" type="passenger"/>
    <trip id="veh219" depart="647.33" departLane="best" from="11734345#0" to="11830680#1" type="passenger"/>
    <trip id="veh220" depart="650.29" departLane="best" from="294294299#0" to="11734345#3" type="passenger"/>
    <trip id="veh221" depart="653.25" departLane="best" from="294294299#0" to="294294299#3" type="passenger"/>
    <trip id="veh222" depart="656.20" departLane="best" from="11734345#0" to="11830680#2" type="passenger"/>
    <trip id="veh223" depart="659.16" departLane="best" from="11962498#0" to="26321030#1" type="passenger"/>
    <trip id="veh224" depart="662.11" departLane="best" from="294294299#0" to="11734345#3" type="passenger"/>
    <trip id="veh225" depart="665.07" departLane="best" from="11734345#0" to="11830680#1" type="passenger"/>
    <trip id="veh226" depart="668.02" departLane="best" from="11734345#0" to="11830680#0" type="passenger"/>
    <trip id="veh228" depart="673.94" departLane="best" from="294294299#0" to="294294299#5" type="passenger"/>
    <trip id="veh229" depart="676.89" departLane="best" from="-11962498#1" to="26321030#1" type="passenger"/>
    <trip id="veh230" depart="679.85" departLane="best" from="11734345#0" to="11962498#0" type="passenger"/>
    <trip id="veh231" depart="682.80" departLane="best" from="11690285#0" to="26321030#1" type="passenger"/>
    <trip id="veh232" depart="685.76" departLane="best" from="294294299#0" to="11734345#3" type="passenger"/>
    <trip id="veh233" depart="688.72" departLane="best" from="26321030#0" to="26321030#1" type="passenger"/>
    <trip id="veh234" depart="691.67" departLane="best" from="11734345#0" to="11830680#2" type="passenger"/>
    <trip id="veh235" depart="694.63" departLane="best" from="294294299#0" to="294294299#3" type="passenger"/>
    <trip id="veh236" depart="697.58" departLane="best" from="294294299#0" to="11830680#1" type="passenger"/>
    <trip id="veh237" depart="700.54" departLane="best" from="294294299#0" to="11734345#3" type="passenger"/>
    <trip id="veh238" depart="703.49" departLane="best" from="294294299#0" to="294294299#3" type="passenger"/>
    <trip id="veh240" depart="709.41" departLane="best" from="11734345#0" to="294294299#5" type="passenger"/>
    <trip id="veh241" depart="712.36" departLane="best" from="11734345#0" to="11830680#2" type="passenger"/>
    <trip id="veh242" depart="715.32" departLane="best" from="294294299#0" to="11962498#1" type="passenger"/>
    <trip id="veh245" depart="724.19" departLane="best" from="11734345#0" to="11830680#0" type="passenger"/>
    <trip id="veh248" depart="733.05" departLane="best" from="11734345#0" to="11734345#4" type="passenger"/>
    <trip id="veh249" depart="736.01" departLane="best" from="11734345#0" to="11830680#1" type="passenger"/>
    <trip id="veh250" depart="738.97" departLane="best" from="294294299#0" to="-11962498#0" type="passenger"/>
    <trip id="veh251" depart="741.92" departLane="best" from="294294299#0" to="11734345#2" type="passenger"/>
    <trip id="veh252" depart="744.88" departLane="best" from="294294299#0" to="26321030#0" type="passenger"/>
    <trip id="veh253" depart="747.83" departLane="best" from="294294299#0" to="294294299#3" type="passenger"/>
    <trip id="veh254" depart="750.79" departLane="best" from="294294299#0" to="26321030#1" type="passenger"/>
    <trip id="veh255" depart="753.74" departLane="best" from="11690285#0" to="26321030#1" type="passenger"/>
    <trip id="veh256" depart="756.70" departLane="best" from="11734345#0" to="11962498#0" type="passenger"/>
    <trip id="veh257" depart="759.66" departLane="best" from="11690285#0" to="26321030#1" type="passenger"/>
    <trip id="veh258" depart="762.61" departLane="best" from="11734345#0" to="11734345#3" type="passenger"/>
    <trip id="veh259" depart="765.57" departLane="best" from="11962498#0" to="26321030#1" type="passenger"/>
    <trip id="veh261" depart="771.48" departLane="best" from="294294299#0" to="11734345#4" type="passenger"/>
    <trip id="veh262" depart="774.44" departLane="best" from="11690285#0" to="11962498#2" type="passenger"/>
    <trip id="veh264" depart="780.35" departLane="best" from="294294299#0" to="294294299#3" type="passenger"/>
    <trip id="veh266" depart="786.26" departLane="best" from="11734345#0" to="11734345#2" type="passenger"/>
    <trip id="veh267" depart="789.21" departLane="best" from="11734345#0" to="11830680#2" type="passenger"/>
    <trip id="veh269" depart="795.13" departLane="best" from="11690285#1" to="26321030#1" type="passenger"/>
    <trip id="veh270" depart="798.08" departLane="best" from="294294299#0" to="11734345#2" type="passenger"/>
    <trip id="veh271" depart="801.04" departLane="best" from="11690285#0" to="11962498#2" type="passenger"/>
    <trip id="veh272" depart="803.99" departLane="best" from="11734345#0" to="-11962498#1" type="passenger"/>
    <trip id="veh274" depart="809.91" departLane="best" from="294294299#0" to="11690285#1" type="passenger"/>
    <trip id="veh275" depart="812.86" departLane="best" from="11734345#0" to="11830680#2" type="passenger"/>
    <trip id="veh276" depart="815.82" departLane="best" from="294294299#0" to="-11690285#1" type="passenger"/>
    <trip id="veh278" depart="821.73" departLane="best" from="11690285#0" to="26321030#1" type="passenger"/>
    <trip id="veh279" depart="824.69" departLane="best" from="11734345#0" to="11830680#0" type="passenger"/>
    <trip id="veh280" depart="827.64" departLane="best" from="-11962498#0" to="26321030#1" type="passenger"/>
    <trip id="veh283" depart="836.51" departLane="best" from="11962498#0" to="26321030#1" type="passenger"/>
    <trip id="veh285" depart="842.42" departLane="best" from="294294299#0" to="11830680#2" type="passenger"/>
    <trip id="veh286" depart="845.38" departLane="best" from="294294299#0" to="294294299#3" type="passenger"/>
    <trip id="veh287" depart="848.33" departLane="best" from="294294299#0" to="-11690285#1" type="passenger"/>
    <trip id="veh291" depart="860.16" departLane="best" from="11690285#1" to="26321030#1" type="passenger"/>
    <trip id="veh292" depart="863.11" departLane="best" from="294294299#0" to="11962498#0" type="passenger"/>
    <trip id="veh294" depart="869.02" departLane="best" from="11962498#1" to="26321030#1" type="passenger"/>
    <trip id="veh295" depart="871.98" departLane="best" from="294294299#0" to="11962498#2" type="passenger"/>
    <trip id="veh296" depart="874.93" departLane="best" from="-11690285#1" to="26321030#1" type="passenger"/>
    <trip id="veh297" depart="877.89" departLane="best" from="11734345#0" to="294294299#5" type="passenger"/>
    <trip id="veh298" depart="880.85" departLane="best" from="294294299#0" to="294294299#4" type="passenger"/>
    <trip id="veh300" depart="886.76" departLane="best" from="294294299#0" to="294294299#5" type="passenger"/>
    <trip id="veh302" depart="892.67" departLane="best" from="11734345#0" to="11962498#1" type="passenger"/>
    <trip id="veh303" depart="895.63" departLane="best" from="11734345#0" to="294294299#5" type="passenger"/>
    <trip id="veh304" depart="898.58" departLane="best" from="294294299#0" to="-11962498#1" type="passenger"/>
    <trip id="veh305" depart="901.54" departLane="best" from="-11962498#2" to="26321030#1" type="passenger"/>
    <trip id="veh306" depart="904.49" departLane="best" from="294294299#0" to="294294299#3" type="passenger"/>
    <trip id="veh308" depart="910.40" departLane="best" from="294294299#0" to="11830680#0" type="passenger"/>
    <trip id="veh309" depart="913.36" departLane="best" from="11734345#0" to="11734345#2" type="passenger"/>
    <trip id="veh311" depart="919.27" departLane="best" from="294294299#0" to="-11962498#0" type="passenger"/>
    <trip id="veh312" depart="922.23" departLane="best" from="11734345#0" to="11830680#1" type="passenger"/>
    <trip id="veh314" depart="928.14" departLane="best" from="294294299#0" to="11734345#2" type="passenger"/>
    <trip id="veh315" depart="931.10" departLane="best" from="11962498#0" to="26321030#1" type="passenger"/>
    <trip id="veh316" depart="934.05" departLane="best" from="11734345#0" to="11962498#2" type="passenger"/>
    <trip id="veh317" depart="937.01" departLane="best" from="294294299#0" to="-11690285#0" type="passenger"/>
    <trip id="veh318" depart="939.96" departLane="best" from="-11962498#1" to="26321030#1" type="passenger"/>
    <trip id="veh320" depart="945.88" departLane="best" from="294294299#0" to="11830680#1" type="passenger"/>
    <trip id="veh321" depart="948.83" departLane="best" from="294294299#0" to="294294299#4" type="passenger"/>
    <trip id="veh322" depart="951.79" departLane="best" from="-11962498#2" to="26321030#1" type="passenger"/>
    <trip id="veh323" depart="954.74" departLane="best" from="294294299#0" to="11734345#2" type="passenger"/>
    <trip id="veh324" depart="957.70" departLane="best" from="294294299#0" to="11734345#4" type="passenger"/>
    <trip id="veh325" depart="960.65" departLane="best" from="11734345#0" to="11830680#2" type="passenger"/>
    <trip id="veh326" depart="963.61" departLane="best" from="11734345#0" to="11734345#3" type="passenger"/>
    <trip id="veh327" depart="966.57" departLane="best" from="11734345#0" to="294294299#5" type="passenger"/>
    <trip id="veh329" depart="972.48" departLane="best" from="11734345#0" to="11962498#0" type="passenger"/>
    <trip id="veh330" depart="975.43" departLane="best" from="11690285#0" to="26321030#1" type="passenger"/>
    <trip id="veh331" depart="978.39" departLane="best" from="294294299#0" to="26321030#1" type="passenger"/>
    <trip id="veh332" depart="981.35" departLane="best" from="-11690285#1" to="26321030#1" type="passenger"/>
    <trip id="veh333" depart="984.30" departLane="best" from="11962498#0" to="26321030#1" type="passenger"/>
    <trip id="veh334" depart="987.26" departLane="best" from="294294299#0" to="-11962498#1" type="passenger"/>
    <trip id="veh335" depart="990.21" departLane="best" from="-11690285#1" to="26321030#1" type="passenger"/>
    <trip id="veh336" depart="993.17" departLane="best" from="11734345#0" to="11830680#1" type="passenger"/>
    <trip id="veh338" depart="999.08" departLane="best" from="-11962498#1" to="26321030#1" type="passenger"/>
    <trip id="veh339" depart="1002.04" departLane="best" from="11734345#0" to="11962498#2" type="passenger"/>
    <trip id="veh340" depart="1004.99" departLane="best" from="-11962498#0" to="26321030#1" type="passenger"/>
    <trip id="veh341" depart="1007.95" departLane="best" from="11734345#0" to="11830680#2" type="passenger"/>
    <trip id="veh342" depart="1010.90" departLane="best" from="294294299#0" to="294294299#5" type="passenger"/>
    <trip id="veh343" depart="1013.86" departLane="best" from="11734345#0" to="11734345#2" type="passenger"/>
    <trip id="veh344" depart="1016.82" departLane="best" from="-11962498#1" to="26321030#1" type="passenger"/>
    <trip id="veh345" depart="1019.77" departLane="best" from="11734345#0" to="11962498#0" type="passenger"/>