<edges>
<edge id="e_2_1_2_2" from="(2,1)" to="(2,2)" type="d" />
<edge id="e_3_1_3_2" from="(3,1)" to="(3,2)" type="d" />
<edge id="e_4_1_4_2" from="(4,1)" to="(4,2)" type="d" />
<edge id="e_5_1_5_2" from="(5,1)" to="(5,2)" type="d" />
<edge id="e_1_2_2_2" from="(1,2)" to="(2,2)" type="d" />
<edge id="e_2_2_2_3" from="(2,2)" to="(2,3)" type="d" />
<edge id="e_2_2_3_2" from="(2,2)" to="(3,2)" type="d" />
<edge id="e_2_2_2_1" from="(2,2)" to="(2,1)" type="d" />
<edge id="e_2_2_1_2" from="(2,2)" to="(1,2)" type="d" />
<edge id="e_3_2_3_3" from="(3,2)" to="(3,3)" type="d" />
<edge id="e_3_2_4_2" from="(3,2)" to="(4,2)" type="d" />
<edge id="e_3_2_3_1" from="(3,2)" to="(3,1)" type="d" />
<edge id="e_3_2_2_2" from="(3,2)" to="(2,2)" type="d" />
<edge id="e_4_2_4_3" from="(4,2)" to="(4,3)" type="d" />
<edge id="e_4_2_5_2" from="(4,2)" to="(5,2)" type="d" />
<edge id="e_4_2_4_1" from="(4,2)" to="(4,1)" type="d" />
<edge id="e_4_2_3_2" from="(4,2)" to="(3,2)" type="d" />
<edge id="e_5_2_5_3" from="(5,2)" to="(5,3)" type="d" />
<edge id="e_5_2_6_2" from="(5,2)" to="(6,2)" type="d" />
<edge id="e_5_2_5_1" from="(5,2)" to="(5,1)" type="d" />
<edge id="e_5_2_4_2" from="(5,2)" to="(4,2)" type="d" />
<edge id="e_6_2_5_2" from="(6,2)" to="(5,2)" type="d" />
<edge id="e_1_3_2_3" from="(1,3)" to="(2,3)" type="d" />
<edge id="e_2_3_2_4" from="(2,3)" to="(2,4)" type="d" />
<edge id="e_2_3_3_3" from="(2,3)" to="(3,3)" type="d" />
<edge id="e_2_3_2_2" from="(2,3)" to="(2,2)" type="d" />
<edge id="e_2_3_1_3" from="(2,3)" to="(1,3)" type="d" />
<edge id="e_3_3_3_4" from="(3,3)" to="(3,4)" type="d" />
<edge id="e_3_3_4_3" from="(3,3)" to="(4,3)" type="d" />
<edge id="e_3_3_3_2" from="(3,3)" to="(3,2)" type="d" />
<edge id="e_3_3_2_3" from="(3,3)" to="(2,3)" type="d" />
<edge id="e_4_3_4_4" from="(4,3)" to="(4,4)" type="d" />
<edge id="e_4_3_5_3" from="(4,3)" to="(5,3)" type="d" />
<edge id="e_4_3_4_2" from="(4,3)" to="(4,2)" type="d" />
<edge id="e_4_3_3_3" from="(4,3)" to="(3,3)" type="d" />
<edge id="e_5_3_5_4" from="(5,3)" to="(5,4)" type="d" />
<edge id="e_5_3_6_3" from="(5,3)" to="(6,3)" type="d" />
<edge id="e_5_3_5_2" from="(5,3)" to="(5,2)" type="d" />
<edge id="e_5_3_4_3" from="(5,3)" to="(4,3)" type="d" />
<edge id="e_6_3_5_3" from="(6,3)" to="(5,3)" type="d" />
<edge id="e_1_4_2_4" from="(1,4)" to="(2,4)" type="d" />
<edge id="e_2_4_2_5" from="(2,4)" to="(2,5)" type="d" />
<edge id="e_2_4_3_4" from="(2,4)" to="(3,4)" type="d" />
<edge id="e_2_4_2_3" from="(2,4)" to="(2,3)" type="d" />
<edge id="e_2_4_1_4" from="(2,4)" to="(1,4)" type="d" />
<edge id="e_3_4_3_5" from="(3,4)" to="(3,5)" type="d" />
<edge id="e_3_4_4_4" from="(3,4)" to="(4,4)" type="d" />
<edge id="e_3_4_3_3" from="(3,4)" to="(3,3)" type="d" />
<edge id="e_3_4_2_4" from="(3,4)" to="(2,4)" type="d" />
<edge id="e_4_4_4_5" from="(4,4)" to="(4,5)" type="d" />
<edge id="e_4_4_5_4" from="(4,4)" to="(5,4)" type="d" />
<edge id="e_4_4_4_3" from="(4,4)" to="(4,3)" type="d" />
<edge id="e_4_4_3_4" from="(4,4)" to="(3,4)" type="d" />
<edge id="e_5_4_5_5" from="(5,4)" to="(5,5)" type="d" />
<edge id="e_5_4_6_4" from="(5,4)" to="(6,4)" type="d" />
<edge id="e_5_4_5_3" from="(5,4)" to="(5,3)" type="d" />
<edge id="e_5_4_4_4" from="(5,4)" to="(4,4)" type="d" />
<edge id="e_6_4_5_4" from="(6,4)" to="(5,4)" type="d" />
<edge id="e_1_5_2_5" from="(1,5)" to="(2,5)" type="d" />
<edge id="e_2_5_2_6" from="(2,5)" to="(2,6)" type="d" />
<edge id="e_2_5_3_5" from="(2,5)" to="(3,5)" type="d" />
<edge id="e_2_5_2_4" from="(2,5)" to="(2,4)" type="d" />
<edge id="e_2_5_1_5" from="(2,5)" to="(1,5)" type="d" />
<edge id="e_3_5_3_6" from="(3,5)" to="(3,6)" type="d" />
<edge id="e_3_5_4_5" from="(3,5)" to="(4,5)" type="d" />
<edge id="e_3_5_3_4" from="(3,5)" to="(3,4)" type="d" />
<edge id="e_3_5_2_5" from="(3,5)" to="(2,5)" type="d" />
<edge id="e_4_5_4_6" from="(4,5)" to="(4,6)" type="d" />
<edge id="e_4_5_5_5" from="(4,5)" to="(5,5)" type="d" />
<edge id="e_4_5_4_4" from="(4,5)" to="(4,4)" type="d" />
<edge id="e_4_5_3_5" from="(4,5)" to="(3,5)" type="d" />
<edge id="e_5_5_5_6" from="(5,5)" to="(5,6)" type="d" />
<edge id="e_5_5_6_5" from="(5,5)" to="(6,5)" type="d" />
<edge id="e_5_5_5_4" from="(5,5)" to="(5,4)" type="d" />
<edge id="e_5_5_4_5" from="(5,5)" to="(4,5)" type="d" />
<edge id="e_6_5_5_5" from="(6,5)" to="(5,5)" type="d" />
<edge id="e_2_6_2_5" from="(2,6)" to="(2,5)" type="d" />
<edge id="e_3_6_3_5" from="(3,6)" to="(3,5)" type="d" />
<edge id="e_4_6_4_5" from="(4,6)" to="(4,5)" type="d" />
<edge id="e_5_6_5_5" from="(5,6)" to="(5,5)" type="d" />
</edges>