<nodes>
<node id="(2,1)" x="-125" y="-250" type="priority" />
<node id="(3,1)" x="0" y="-250" type="priority" />
<node id="(4,1)" x="125" y="-250" type="priority" />
<node id="(5,1)" x="250" y="-250" type="priority" />
<node id="(1,2)" x="-250" y="-125" type="priority" />
<node id="(2,2)" x="-125" y="-125" type="traffic_light" />
<node id="(3,2)" x="0" y="-125" type="traffic_light" />
<node id="(4,2)" x="125" y="-125" type="traffic_light" />
<node id="(5,2)" x="250" y="-125" type="traffic_light" />
<node id="(6,2)" x="375" y="-125" type="priority" />
<node id="(1,3)" x="-250" y="0" type="priority" />
<node id="(2,3)" x="-125" y="0" type="traffic_light" />
<node id="(3,3)" x="0" y="0" type="traffic_light" />
<node id="(4,3)" x="125" y="0" type="traffic_light" />
<node id="(5,3)" x="250" y="0" type="traffic_light" />
<node id="(6,3)" x="375" y="0" type="priority" />
<node id="(1,4)" x="-250" y="125" type="priority" />
<node id="(2,4)" x="-125" y="125" type="traffic_light" />
<node id="(3,4)" x="0" y="125" type="traffic_light" />
<node id="(4,4)" x="125" y="125" type="traffic_light" />
<node id="(5,4)" x="250" y="125" type="traffic_light" />
<node id="(6,4)" x="375" y="125" type="priority" />
<node id="(1,5)" x="-250" y="250" type="priority" />
<node id="(2,5)" x="-125" y="250" type="traffic_light" />
<node id="(3,5)" x="0" y="250" type="traffic_light" />
<node id="(4,5)" x="125" y="250" type="traffic_light" />
<node id="(5,5)" x="250" y="250" type="traffic_light" />
<node id="(6,5)" x="375" y="250" type="priority" />
<node id="(2,6)" x="-125" y="375" type="priority" />
<node id="(3,6)" x="0" y="375" type="priority" />
<node id="(4,6)" x="125" y="375" type="priority" />
<node id="(5,6)" x="250" y="375" type="priority" />
</nodes>