<?xml version="1.0" encoding="UTF-8"?>

<!-- generated on Thu Mar  1 14:25:03 2018 by SUMO netconvert Version 0.32.0
<?xml version="1.0" encoding="UTF-8"?>

<configuration xmlns:xsi="http://www.w3.org/2001/XMLSchema-instance" xsi:noNamespaceSchemaLocation="http://sumo.dlr.de/xsd/netconvertConfiguration.xsd">

    <input>
        <node-files value="traffic.nod.xml"/>
        <edge-files value="traffic.edg.xml"/>
        <type-files value="traffic.typ.xml"/>
    </input>

    <output>
        <output-file value="traffic.net.xml"/>
    </output>

</configuration>
-->

<net version="0.27" xmlns:xsi="http://www.w3.org/2001/XMLSchema-instance" xsi:noNamespaceSchemaLocation="http://sumo.dlr.de/xsd/net_file.xsd">

    <location netOffset="250.00,250.00" convBoundary="0.00,0.00,625.00,625.00" origBoundary="-250.00,-250.00,375.00,375.00" projParameter="!"/>

    <type id="d" priority="3" numLanes="1" speed="11.11"/>
    <type id="m" priority="3" numLanes="2" speed="11.11"/>

    <edge id=":(1,2)_0" function="internal">
        <lane id=":(1,2)_0_0" index="0" speed="11.11" length="4.82" shape="0.00,126.65 -1.24,125.83 -1.65,125.00 -1.24,124.17 0.00,123.35"/>
    </edge>
    <edge id=":(1,3)_0" function="internal">
        <lane id=":(1,3)_0_0" index="0" speed="11.11" length="4.82" shape="0.00,251.65 -1.24,250.82 -1.65,250.00 -1.24,249.18 0.00,248.35"/>
    </edge>
    <edge id=":(1,4)_0" function="internal">
        <lane id=":(1,4)_0_0" index="0" speed="11.11" length="4.82" shape="0.00,376.65 -1.24,375.83 -1.65,375.00 -1.24,374.18 0.00,373.35"/>
    </edge>
    <edge id=":(1,5)_0" function="internal">
        <lane id=":(1,5)_0_0" index="0" speed="11.11" length="4.82" shape="0.00,501.65 -1.24,500.82 -1.65,500.00 -1.24,499.18 0.00,498.35"/>
    </edge>
    <edge id=":(2,1)_0" function="internal">
        <lane id=":(2,1)_0_0" index="0" speed="11.11" length="4.82" shape="123.35,0.00 124.17,-1.24 125.00,-1.65 125.83,-1.24 126.65,0.00"/>
    </edge>
    <edge id=":(2,2)_0" function="internal">
        <lane id=":(2,2)_0_0" index="0" speed="11.11" length="5.00" shape="123.35,129.75 123.16,128.39 122.57,127.43 121.61,126.84 120.25,126.65"/>
    </edge>
    <edge id=":(2,2)_1" function="internal">
        <lane id=":(2,2)_1_0" index="0" speed="11.11" length="9.50" shape="123.35,129.75 123.35,120.25"/>
    </edge>
    <edge id=":(2,2)_2" function="internal">
        <lane id=":(2,2)_2_0" index="0" speed="11.11" length="5.28" shape="123.35,129.75 123.75,126.95 124.95,124.95 125.05,124.89"/>
    </edge>
    <edge id=":(2,2)_3" function="internal">
        <lane id=":(2,2)_3_0" index="0" speed="11.11" length="2.41" shape="123.35,129.75 124.17,128.51 125.00,128.10"/>
    </edge>
    <edge id=":(2,2)_16" function="internal">
        <lane id=":(2,2)_16_0" index="0" speed="11.11" length="5.04" shape="125.05,124.89 126.95,123.75 129.75,123.35"/>
    </edge>
    <edge id=":(2,2)_17" function="internal">
        <lane id=":(2,2)_17_0" index="0" speed="11.11" length="2.41" shape="125.00,128.10 125.83,128.51 126.65,129.75"/>
    </edge>
    <edge id=":(2,2)_4" function="internal">
        <lane id=":(2,2)_4_0" index="0" speed="11.11" length="5.00" shape="129.75,126.65 128.39,126.84 127.43,127.43 126.84,128.39 126.65,129.75"/>
    </edge>
    <edge id=":(2,2)_5" function="internal">
        <lane id=":(2,2)_5_0" index="0" speed="11.11" length="9.50" shape="129.75,126.65 120.25,126.65"/>
    </edge>
    <edge id=":(2,2)_6" function="internal">
        <lane id=":(2,2)_6_0" index="0" speed="11.11" length="5.28" shape="129.75,126.65 126.95,126.25 124.95,125.05 124.89,124.95"/>
    </edge>
    <edge id=":(2,2)_7" function="internal">
        <lane id=":(2,2)_7_0" index="0" speed="11.11" length="2.41" shape="129.75,126.65 128.51,125.83 128.10,125.00"/>
    </edge>
    <edge id=":(2,2)_18" function="internal">
        <lane id=":(2,2)_18_0" index="0" speed="11.11" length="5.04" shape="124.89,124.95 123.75,123.05 123.35,120.25"/>
    </edge>
    <edge id=":(2,2)_19" function="internal">
        <lane id=":(2,2)_19_0" index="0" speed="11.11" length="2.41" shape="128.10,125.00 128.51,124.17 129.75,123.35"/>
    </edge>
    <edge id=":(2,2)_8" function="internal">
        <lane id=":(2,2)_8_0" index="0" speed="11.11" length="5.00" shape="126.65,120.25 126.84,121.61 127.43,122.57 128.39,123.16 129.75,123.35"/>
    </edge>
    <edge id=":(2,2)_9" function="internal">
        <lane id=":(2,2)_9_0" index="0" speed="11.11" length="9.50" shape="126.65,120.25 126.65,129.75"/>
    </edge>
    <edge id=":(2,2)_10" function="internal">
        <lane id=":(2,2)_10_0" index="0" speed="11.11" length="5.28" shape="126.65,120.25 126.25,123.05 125.05,125.05 124.95,125.11"/>
    </edge>
    <edge id=":(2,2)_11" function="internal">
        <lane id=":(2,2)_11_0" index="0" speed="11.11" length="2.41" shape="126.65,120.25 125.83,121.49 125.00,121.90"/>
    </edge>
    <edge id=":(2,2)_20" function="internal">
        <lane id=":(2,2)_20_0" index="0" speed="11.11" length="5.04" shape="124.95,125.11 123.05,126.25 120.25,126.65"/>
    </edge>
    <edge id=":(2,2)_21" function="internal">
        <lane id=":(2,2)_21_0" index="0" speed="11.11" length="2.41" shape="125.00,121.90 124.17,121.49 123.35,120.25"/>
    </edge>
    <edge id=":(2,2)_12" function="internal">
        <lane id=":(2,2)_12_0" index="0" speed="11.11" length="5.00" shape="120.25,123.35 121.61,123.16 122.57,122.57 123.16,121.61 123.35,120.25"/>
    </edge>
    <edge id=":(2,2)_13" function="internal">
        <lane id=":(2,2)_13_0" index="0" speed="11.11" length="9.50" shape="120.25,123.35 129.75,123.35"/>
    </edge>
    <edge id=":(2,2)_14" function="internal">
        <lane id=":(2,2)_14_0" index="0" speed="11.11" length="5.28" shape="120.25,123.35 123.05,123.75 125.05,124.95 125.11,125.05"/>
    </edge>
    <edge id=":(2,2)_15" function="internal">
        <lane id=":(2,2)_15_0" index="0" speed="11.11" length="2.41" shape="120.25,123.35 121.49,124.17 121.90,125.00"/>
    </edge>
    <edge id=":(2,2)_22" function="internal">
        <lane id=":(2,2)_22_0" index="0" speed="11.11" length="5.04" shape="125.11,125.05 126.25,126.95 126.65,129.75"/>
    </edge>
    <edge id=":(2,2)_23" function="internal">
        <lane id=":(2,2)_23_0" index="0" speed="11.11" length="2.41" shape="121.90,125.00 121.49,125.83 120.25,126.65"/>
    </edge>
    <edge id=":(2,3)_0" function="internal">
        <lane id=":(2,3)_0_0" index="0" speed="11.11" length="5.00" shape="123.35,254.75 123.16,253.39 122.57,252.43 121.61,251.84 120.25,251.65"/>
    </edge>
    <edge id=":(2,3)_1" function="internal">
        <lane id=":(2,3)_1_0" index="0" speed="11.11" length="9.50" shape="123.35,254.75 123.35,245.25"/>
    </edge>
    <edge id=":(2,3)_2" function="internal">
        <lane id=":(2,3)_2_0" index="0" speed="11.11" length="5.28" shape="123.35,254.75 123.75,251.95 124.95,249.95 125.05,249.89"/>
    </edge>
    <edge id=":(2,3)_3" function="internal">
        <lane id=":(2,3)_3_0" index="0" speed="11.11" length="2.41" shape="123.35,254.75 124.17,253.51 125.00,253.10"/>
    </edge>
    <edge id=":(2,3)_16" function="internal">
        <lane id=":(2,3)_16_0" index="0" speed="11.11" length="5.04" shape="125.05,249.89 126.95,248.75 129.75,248.35"/>
    </edge>
    <edge id=":(2,3)_17" function="internal">
        <lane id=":(2,3)_17_0" index="0" speed="11.11" length="2.41" shape="125.00,253.10 125.83,253.51 126.65,254.75"/>
    </edge>
    <edge id=":(2,3)_4" function="internal">
        <lane id=":(2,3)_4_0" index="0" speed="11.11" length="5.00" shape="129.75,251.65 128.39,251.84 127.43,252.43 126.84,253.39 126.65,254.75"/>
    </edge>
    <edge id=":(2,3)_5" function="internal">
        <lane id=":(2,3)_5_0" index="0" speed="11.11" length="9.50" shape="129.75,251.65 120.25,251.65"/>
    </edge>
    <edge id=":(2,3)_6" function="internal">
        <lane id=":(2,3)_6_0" index="0" speed="11.11" length="5.28" shape="129.75,251.65 126.95,251.25 124.95,250.05 124.89,249.95"/>
    </edge>
    <edge id=":(2,3)_7" function="internal">
        <lane id=":(2,3)_7_0" index="0" speed="11.11" length="2.41" shape="129.75,251.65 128.51,250.82 128.10,250.00"/>
    </edge>
    <edge id=":(2,3)_18" function="internal">
        <lane id=":(2,3)_18_0" index="0" speed="11.11" length="5.04" shape="124.89,249.95 123.75,248.05 123.35,245.25"/>
    </edge>
    <edge id=":(2,3)_19" function="internal">
        <lane id=":(2,3)_19_0" index="0" speed="11.11" length="2.41" shape="128.10,250.00 128.51,249.18 129.75,248.35"/>
    </edge>
    <edge id=":(2,3)_8" function="internal">
        <lane id=":(2,3)_8_0" index="0" speed="11.11" length="5.00" shape="126.65,245.25 126.84,246.61 127.43,247.58 128.39,248.16 129.75,248.35"/>
    </edge>
    <edge id=":(2,3)_9" function="internal">
        <lane id=":(2,3)_9_0" index="0" speed="11.11" length="9.50" shape="126.65,245.25 126.65,254.75"/>
    </edge>
    <edge id=":(2,3)_10" function="internal">
        <lane id=":(2,3)_10_0" index="0" speed="11.11" length="5.28" shape="126.65,245.25 126.25,248.05 125.05,250.05 124.95,250.11"/>
    </edge>
    <edge id=":(2,3)_11" function="internal">
        <lane id=":(2,3)_11_0" index="0" speed="11.11" length="2.41" shape="126.65,245.25 125.83,246.49 125.00,246.90"/>
    </edge>
    <edge id=":(2,3)_20" function="internal">
        <lane id=":(2,3)_20_0" index="0" speed="11.11" length="5.04" shape="124.95,250.11 123.05,251.25 120.25,251.65"/>
    </edge>
    <edge id=":(2,3)_21" function="internal">
        <lane id=":(2,3)_21_0" index="0" speed="11.11" length="2.41" shape="125.00,246.90 124.17,246.49 123.35,245.25"/>
    </edge>
    <edge id=":(2,3)_12" function="internal">
        <lane id=":(2,3)_12_0" index="0" speed="11.11" length="5.00" shape="120.25,248.35 121.61,248.16 122.57,247.57 123.16,246.61 123.35,245.25"/>
    </edge>
    <edge id=":(2,3)_13" function="internal">
        <lane id=":(2,3)_13_0" index="0" speed="11.11" length="9.50" shape="120.25,248.35 129.75,248.35"/>
    </edge>
    <edge id=":(2,3)_14" function="internal">
        <lane id=":(2,3)_14_0" index="0" speed="11.11" length="5.28" shape="120.25,248.35 123.05,248.75 125.05,249.95 125.11,250.05"/>
    </edge>
    <edge id=":(2,3)_15" function="internal">
        <lane id=":(2,3)_15_0" index="0" speed="11.11" length="2.41" shape="120.25,248.35 121.49,249.18 121.90,250.00"/>
    </edge>
    <edge id=":(2,3)_22" function="internal">
        <lane id=":(2,3)_22_0" index="0" speed="11.11" length="5.04" shape="125.11,250.05 126.25,251.95 126.65,254.75"/>
    </edge>
    <edge id=":(2,3)_23" function="internal">
        <lane id=":(2,3)_23_0" index="0" speed="11.11" length="2.41" shape="121.90,250.00 121.49,250.82 120.25,251.65"/>
    </edge>
    <edge id=":(2,4)_0" function="internal">
        <lane id=":(2,4)_0_0" index="0" speed="11.11" length="5.00" shape="123.35,379.75 123.16,378.39 122.57,377.42 121.61,376.84 120.25,376.65"/>
    </edge>
    <edge id=":(2,4)_1" function="internal">
        <lane id=":(2,4)_1_0" index="0" speed="11.11" length="9.50" shape="123.35,379.75 123.35,370.25"/>
    </edge>
    <edge id=":(2,4)_2" function="internal">
        <lane id=":(2,4)_2_0" index="0" speed="11.11" length="5.28" shape="123.35,379.75 123.75,376.95 124.95,374.95 125.05,374.89"/>
    </edge>
    <edge id=":(2,4)_3" function="internal">
        <lane id=":(2,4)_3_0" index="0" speed="11.11" length="2.41" shape="123.35,379.75 124.17,378.51 125.00,378.10"/>
    </edge>
    <edge id=":(2,4)_16" function="internal">
        <lane id=":(2,4)_16_0" index="0" speed="11.11" length="5.04" shape="125.05,374.89 126.95,373.75 129.75,373.35"/>
    </edge>
    <edge id=":(2,4)_17" function="internal">
        <lane id=":(2,4)_17_0" index="0" speed="11.11" length="2.41" shape="125.00,378.10 125.83,378.51 126.65,379.75"/>
    </edge>
    <edge id=":(2,4)_4" function="internal">
        <lane id=":(2,4)_4_0" index="0" speed="11.11" length="5.00" shape="129.75,376.65 128.39,376.84 127.43,377.42 126.84,378.39 126.65,379.75"/>
    </edge>
    <edge id=":(2,4)_5" function="internal">
        <lane id=":(2,4)_5_0" index="0" speed="11.11" length="9.50" shape="129.75,376.65 120.25,376.65"/>
    </edge>
    <edge id=":(2,4)_6" function="internal">
        <lane id=":(2,4)_6_0" index="0" speed="11.11" length="5.28" shape="129.75,376.65 126.95,376.25 124.95,375.05 124.89,374.95"/>
    </edge>
    <edge id=":(2,4)_7" function="internal">
        <lane id=":(2,4)_7_0" index="0" speed="11.11" length="2.41" shape="129.75,376.65 128.51,375.83 128.10,375.00"/>
    </edge>
    <edge id=":(2,4)_18" function="internal">
        <lane id=":(2,4)_18_0" index="0" speed="11.11" length="5.04" shape="124.89,374.95 123.75,373.05 123.35,370.25"/>
    </edge>
    <edge id=":(2,4)_19" function="internal">
        <lane id=":(2,4)_19_0" index="0" speed="11.11" length="2.41" shape="128.10,375.00 128.51,374.18 129.75,373.35"/>
    </edge>
    <edge id=":(2,4)_8" function="internal">
        <lane id=":(2,4)_8_0" index="0" speed="11.11" length="5.00" shape="126.65,370.25 126.84,371.61 127.43,372.58 128.39,373.16 129.75,373.35"/>
    </edge>
    <edge id=":(2,4)_9" function="internal">
        <lane id=":(2,4)_9_0" index="0" speed="11.11" length="9.50" shape="126.65,370.25 126.65,379.75"/>
    </edge>
    <edge id=":(2,4)_10" function="internal">
        <lane id=":(2,4)_10_0" index="0" speed="11.11" length="5.28" shape="126.65,370.25 126.25,373.05 125.05,375.05 124.95,375.11"/>
    </edge>
    <edge id=":(2,4)_11" function="internal">
        <lane id=":(2,4)_11_0" index="0" speed="11.11" length="2.41" shape="126.65,370.25 125.83,371.49 125.00,371.90"/>
    </edge>
    <edge id=":(2,4)_20" function="internal">
        <lane id=":(2,4)_20_0" index="0" speed="11.11" length="5.04" shape="124.95,375.11 123.05,376.25 120.25,376.65"/>
    </edge>
    <edge id=":(2,4)_21" function="internal">
        <lane id=":(2,4)_21_0" index="0" speed="11.11" length="2.41" shape="125.00,371.90 124.17,371.49 123.35,370.25"/>
    </edge>
    <edge id=":(2,4)_12" function="internal">
        <lane id=":(2,4)_12_0" index="0" speed="11.11" length="5.00" shape="120.25,373.35 121.61,373.16 122.57,372.58 123.16,371.61 123.35,370.25"/>
    </edge>
    <edge id=":(2,4)_13" function="internal">
        <lane id=":(2,4)_13_0" index="0" speed="11.11" length="9.50" shape="120.25,373.35 129.75,373.35"/>
    </edge>
    <edge id=":(2,4)_14" function="internal">
        <lane id=":(2,4)_14_0" index="0" speed="11.11" length="5.28" shape="120.25,373.35 123.05,373.75 125.05,374.95 125.11,375.05"/>
    </edge>
    <edge id=":(2,4)_15" function="internal">
        <lane id=":(2,4)_15_0" index="0" speed="11.11" length="2.41" shape="120.25,373.35 121.49,374.17 121.90,375.00"/>
    </edge>
    <edge id=":(2,4)_22" function="internal">
        <lane id=":(2,4)_22_0" index="0" speed="11.11" length="5.04" shape="125.11,375.05 126.25,376.95 126.65,379.75"/>
    </edge>
    <edge id=":(2,4)_23" function="internal">
        <lane id=":(2,4)_23_0" index="0" speed="11.11" length="2.41" shape="121.90,375.00 121.49,375.82 120.25,376.65"/>
    </edge>
    <edge id=":(2,5)_0" function="internal">
        <lane id=":(2,5)_0_0" index="0" speed="11.11" length="5.00" shape="123.35,504.75 123.16,503.39 122.57,502.42 121.61,501.84 120.25,501.65"/>
    </edge>
    <edge id=":(2,5)_1" function="internal">
        <lane id=":(2,5)_1_0" index="0" speed="11.11" length="9.50" shape="123.35,504.75 123.35,495.25"/>
    </edge>
    <edge id=":(2,5)_2" function="internal">
        <lane id=":(2,5)_2_0" index="0" speed="11.11" length="5.28" shape="123.35,504.75 123.75,501.95 124.95,499.95 125.05,499.89"/>
    </edge>
    <edge id=":(2,5)_3" function="internal">
        <lane id=":(2,5)_3_0" index="0" speed="11.11" length="2.41" shape="123.35,504.75 124.17,503.51 125.00,503.10"/>
    </edge>
    <edge id=":(2,5)_16" function="internal">
        <lane id=":(2,5)_16_0" index="0" speed="11.11" length="5.04" shape="125.05,499.89 126.95,498.75 129.75,498.35"/>
    </edge>
    <edge id=":(2,5)_17" function="internal">
        <lane id=":(2,5)_17_0" index="0" speed="11.11" length="2.41" shape="125.00,503.10 125.83,503.51 126.65,504.75"/>
    </edge>
    <edge id=":(2,5)_4" function="internal">
        <lane id=":(2,5)_4_0" index="0" speed="11.11" length="5.00" shape="129.75,501.65 128.39,501.84 127.43,502.42 126.84,503.39 126.65,504.75"/>
    </edge>
    <edge id=":(2,5)_5" function="internal">
        <lane id=":(2,5)_5_0" index="0" speed="11.11" length="9.50" shape="129.75,501.65 120.25,501.65"/>
    </edge>
    <edge id=":(2,5)_6" function="internal">
        <lane id=":(2,5)_6_0" index="0" speed="11.11" length="5.28" shape="129.75,501.65 126.95,501.25 124.95,500.05 124.89,499.95"/>
    </edge>
    <edge id=":(2,5)_7" function="internal">
        <lane id=":(2,5)_7_0" index="0" speed="11.11" length="2.41" shape="129.75,501.65 128.51,500.82 128.10,500.00"/>
    </edge>
    <edge id=":(2,5)_18" function="internal">
        <lane id=":(2,5)_18_0" index="0" speed="11.11" length="5.04" shape="124.89,499.95 123.75,498.05 123.35,495.25"/>
    </edge>
    <edge id=":(2,5)_19" function="internal">
        <lane id=":(2,5)_19_0" index="0" speed="11.11" length="2.41" shape="128.10,500.00 128.51,499.18 129.75,498.35"/>
    </edge>
    <edge id=":(2,5)_8" function="internal">
        <lane id=":(2,5)_8_0" index="0" speed="11.11" length="5.00" shape="126.65,495.25 126.84,496.61 127.43,497.58 128.39,498.16 129.75,498.35"/>
    </edge>
    <edge id=":(2,5)_9" function="internal">
        <lane id=":(2,5)_9_0" index="0" speed="11.11" length="9.50" shape="126.65,495.25 126.65,504.75"/>
    </edge>
    <edge id=":(2,5)_10" function="internal">
        <lane id=":(2,5)_10_0" index="0" speed="11.11" length="5.28" shape="126.65,495.25 126.25,498.05 125.05,500.05 124.95,500.11"/>
    </edge>
    <edge id=":(2,5)_11" function="internal">
        <lane id=":(2,5)_11_0" index="0" speed="11.11" length="2.41" shape="126.65,495.25 125.83,496.49 125.00,496.90"/>
    </edge>
    <edge id=":(2,5)_20" function="internal">
        <lane id=":(2,5)_20_0" index="0" speed="11.11" length="5.04" shape="124.95,500.11 123.05,501.25 120.25,501.65"/>
    </edge>
    <edge id=":(2,5)_21" function="internal">
        <lane id=":(2,5)_21_0" index="0" speed="11.11" length="2.41" shape="125.00,496.90 124.17,496.49 123.35,495.25"/>
    </edge>
    <edge id=":(2,5)_12" function="internal">
        <lane id=":(2,5)_12_0" index="0" speed="11.11" length="5.00" shape="120.25,498.35 121.61,498.16 122.57,497.58 123.16,496.61 123.35,495.25"/>
    </edge>
    <edge id=":(2,5)_13" function="internal">
        <lane id=":(2,5)_13_0" index="0" speed="11.11" length="9.50" shape="120.25,498.35 129.75,498.35"/>
    </edge>
    <edge id=":(2,5)_14" function="internal">
        <lane id=":(2,5)_14_0" index="0" speed="11.11" length="5.28" shape="120.25,498.35 123.05,498.75 125.05,499.95 125.11,500.05"/>
    </edge>
    <edge id=":(2,5)_15" function="internal">
        <lane id=":(2,5)_15_0" index="0" speed="11.11" length="2.41" shape="120.25,498.35 121.49,499.18 121.90,500.00"/>
    </edge>
    <edge id=":(2,5)_22" function="internal">
        <lane id=":(2,5)_22_0" index="0" speed="11.11" length="5.04" shape="125.11,500.05 126.25,501.95 126.65,504.75"/>
    </edge>
    <edge id=":(2,5)_23" function="internal">
        <lane id=":(2,5)_23_0" index="0" speed="11.11" length="2.41" shape="121.90,500.00 121.49,500.82 120.25,501.65"/>
    </edge>
    <edge id=":(2,6)_0" function="internal">
        <lane id=":(2,6)_0_0" index="0" speed="11.11" length="4.82" shape="126.65,625.00 125.83,626.24 125.00,626.65 124.17,626.24 123.35,625.00"/>
    </edge>
    <edge id=":(3,1)_0" function="internal">
        <lane id=":(3,1)_0_0" index="0" speed="11.11" length="4.82" shape="248.35,0.00 249.18,-1.24 250.00,-1.65 250.82,-1.24 251.65,0.00"/>
    </edge>
    <edge id=":(3,2)_0" function="internal">
        <lane id=":(3,2)_0_0" index="0" speed="11.11" length="5.00" shape="248.35,129.75 248.16,128.39 247.57,127.43 246.61,126.84 245.25,126.65"/>
    </edge>
    <edge id=":(3,2)_1" function="internal">
        <lane id=":(3,2)_1_0" index="0" speed="11.11" length="9.50" shape="248.35,129.75 248.35,120.25"/>
    </edge>
    <edge id=":(3,2)_2" function="internal">
        <lane id=":(3,2)_2_0" index="0" speed="11.11" length="5.28" shape="248.35,129.75 248.75,126.95 249.95,124.95 250.05,124.89"/>
    </edge>
    <edge id=":(3,2)_3" function="internal">
        <lane id=":(3,2)_3_0" index="0" speed="11.11" length="2.41" shape="248.35,129.75 249.18,128.51 250.00,128.10"/>
    </edge>
    <edge id=":(3,2)_16" function="internal">
        <lane id=":(3,2)_16_0" index="0" speed="11.11" length="5.04" shape="250.05,124.89 251.95,123.75 254.75,123.35"/>
    </edge>
    <edge id=":(3,2)_17" function="internal">
        <lane id=":(3,2)_17_0" index="0" speed="11.11" length="2.41" shape="250.00,128.10 250.82,128.51 251.65,129.75"/>
    </edge>
    <edge id=":(3,2)_4" function="internal">
        <lane id=":(3,2)_4_0" index="0" speed="11.11" length="5.00" shape="254.75,126.65 253.39,126.84 252.42,127.43 251.84,128.39 251.65,129.75"/>
    </edge>
    <edge id=":(3,2)_5" function="internal">
        <lane id=":(3,2)_5_0" index="0" speed="11.11" length="9.50" shape="254.75,126.65 245.25,126.65"/>
    </edge>
    <edge id=":(3,2)_6" function="internal">
        <lane id=":(3,2)_6_0" index="0" speed="11.11" length="5.28" shape="254.75,126.65 251.95,126.25 249.95,125.05 249.89,124.95"/>
    </edge>
    <edge id=":(3,2)_7" function="internal">
        <lane id=":(3,2)_7_0" index="0" speed="11.11" length="2.41" shape="254.75,126.65 253.51,125.83 253.10,125.00"/>
    </edge>
    <edge id=":(3,2)_18" function="internal">
        <lane id=":(3,2)_18_0" index="0" speed="11.11" length="5.04" shape="249.89,124.95 248.75,123.05 248.35,120.25"/>
    </edge>
    <edge id=":(3,2)_19" function="internal">
        <lane id=":(3,2)_19_0" index="0" speed="11.11" length="2.41" shape="253.10,125.00 253.51,124.17 254.75,123.35"/>
    </edge>
    <edge id=":(3,2)_8" function="internal">
        <lane id=":(3,2)_8_0" index="0" speed="11.11" length="5.00" shape="251.65,120.25 251.84,121.61 252.43,122.57 253.39,123.16 254.75,123.35"/>
    </edge>
    <edge id=":(3,2)_9" function="internal">
        <lane id=":(3,2)_9_0" index="0" speed="11.11" length="9.50" shape="251.65,120.25 251.65,129.75"/>
    </edge>
    <edge id=":(3,2)_10" function="internal">
        <lane id=":(3,2)_10_0" index="0" speed="11.11" length="5.28" shape="251.65,120.25 251.25,123.05 250.05,125.05 249.95,125.11"/>
    </edge>
    <edge id=":(3,2)_11" function="internal">
        <lane id=":(3,2)_11_0" index="0" speed="11.11" length="2.41" shape="251.65,120.25 250.82,121.49 250.00,121.90"/>
    </edge>
    <edge id=":(3,2)_20" function="internal">
        <lane id=":(3,2)_20_0" index="0" speed="11.11" length="5.04" shape="249.95,125.11 248.05,126.25 245.25,126.65"/>
    </edge>
    <edge id=":(3,2)_21" function="internal">
        <lane id=":(3,2)_21_0" index="0" speed="11.11" length="2.41" shape="250.00,121.90 249.18,121.49 248.35,120.25"/>
    </edge>
    <edge id=":(3,2)_12" function="internal">
        <lane id=":(3,2)_12_0" index="0" speed="11.11" length="5.00" shape="245.25,123.35 246.61,123.16 247.57,122.57 248.16,121.61 248.35,120.25"/>
    </edge>
    <edge id=":(3,2)_13" function="internal">
        <lane id=":(3,2)_13_0" index="0" speed="11.11" length="9.50" shape="245.25,123.35 254.75,123.35"/>
    </edge>
    <edge id=":(3,2)_14" function="internal">
        <lane id=":(3,2)_14_0" index="0" speed="11.11" length="5.28" shape="245.25,123.35 248.05,123.75 250.05,124.95 250.11,125.05"/>
    </edge>
    <edge id=":(3,2)_15" function="internal">
        <lane id=":(3,2)_15_0" index="0" speed="11.11" length="2.41" shape="245.25,123.35 246.49,124.17 246.90,125.00"/>
    </edge>
    <edge id=":(3,2)_22" function="internal">
        <lane id=":(3,2)_22_0" index="0" speed="11.11" length="5.04" shape="250.11,125.05 251.25,126.95 251.65,129.75"/>
    </edge>
    <edge id=":(3,2)_23" function="internal">
        <lane id=":(3,2)_23_0" index="0" speed="11.11" length="2.41" shape="246.90,125.00 246.49,125.83 245.25,126.65"/>
    </edge>
    <edge id=":(3,3)_0" function="internal">
        <lane id=":(3,3)_0_0" index="0" speed="11.11" length="5.00" shape="248.35,254.75 248.16,253.39 247.57,252.42 246.61,251.84 245.25,251.65"/>
    </edge>
    <edge id=":(3,3)_1" function="internal">
        <lane id=":(3,3)_1_0" index="0" speed="11.11" length="9.50" shape="248.35,254.75 248.35,245.25"/>
    </edge>
    <edge id=":(3,3)_2" function="internal">
        <lane id=":(3,3)_2_0" index="0" speed="11.11" length="5.28" shape="248.35,254.75 248.75,251.95 249.95,249.95 250.05,249.89"/>
    </edge>
    <edge id=":(3,3)_3" function="internal">
        <lane id=":(3,3)_3_0" index="0" speed="11.11" length="2.41" shape="248.35,254.75 249.18,253.51 250.00,253.10"/>
    </edge>
    <edge id=":(3,3)_16" function="internal">
        <lane id=":(3,3)_16_0" index="0" speed="11.11" length="5.04" shape="250.05,249.89 251.95,248.75 254.75,248.35"/>
    </edge>
    <edge id=":(3,3)_17" function="internal">
        <lane id=":(3,3)_17_0" index="0" speed="11.11" length="2.41" shape="250.00,253.10 250.82,253.51 251.65,254.75"/>
    </edge>
    <edge id=":(3,3)_4" function="internal">
        <lane id=":(3,3)_4_0" index="0" speed="11.11" length="5.00" shape="254.75,251.65 253.39,251.84 252.42,252.43 251.84,253.39 251.65,254.75"/>
    </edge>
    <edge id=":(3,3)_5" function="internal">
        <lane id=":(3,3)_5_0" index="0" speed="11.11" length="9.50" shape="254.75,251.65 245.25,251.65"/>
    </edge>
    <edge id=":(3,3)_6" function="internal">
        <lane id=":(3,3)_6_0" index="0" speed="11.11" length="5.28" shape="254.75,251.65 251.95,251.25 249.95,250.05 249.89,249.95"/>
    </edge>
    <edge id=":(3,3)_7" function="internal">
        <lane id=":(3,3)_7_0" index="0" speed="11.11" length="2.41" shape="254.75,251.65 253.51,250.82 253.10,250.00"/>
    </edge>
    <edge id=":(3,3)_18" function="internal">
        <lane id=":(3,3)_18_0" index="0" speed="11.11" length="5.04" shape="249.89,249.95 248.75,248.05 248.35,245.25"/>
    </edge>
    <edge id=":(3,3)_19" function="internal">
        <lane id=":(3,3)_19_0" index="0" speed="11.11" length="2.41" shape="253.10,250.00 253.51,249.18 254.75,248.35"/>
    </edge>
    <edge id=":(3,3)_8" function="internal">
        <lane id=":(3,3)_8_0" index="0" speed="11.11" length="5.00" shape="251.65,245.25 251.84,246.61 252.43,247.58 253.39,248.16 254.75,248.35"/>
    </edge>
    <edge id=":(3,3)_9" function="internal">
        <lane id=":(3,3)_9_0" index="0" speed="11.11" length="9.50" shape="251.65,245.25 251.65,254.75"/>
    </edge>
    <edge id=":(3,3)_10" function="internal">
        <lane id=":(3,3)_10_0" index="0" speed="11.11" length="5.28" shape="251.65,245.25 251.25,248.05 250.05,250.05 249.95,250.11"/>
    </edge>
    <edge id=":(3,3)_11" function="internal">
        <lane id=":(3,3)_11_0" index="0" speed="11.11" length="2.41" shape="251.65,245.25 250.82,246.49 250.00,246.90"/>
    </edge>
    <edge id=":(3,3)_20" function="internal">
        <lane id=":(3,3)_20_0" index="0" speed="11.11" length="5.04" shape="249.95,250.11 248.05,251.25 245.25,251.65"/>
    </edge>
    <edge id=":(3,3)_21" function="internal">
        <lane id=":(3,3)_21_0" index="0" speed="11.11" length="2.41" shape="250.00,246.90 249.18,246.49 248.35,245.25"/>
    </edge>
    <edge id=":(3,3)_12" function="internal">
        <lane id=":(3,3)_12_0" index="0" speed="11.11" length="5.00" shape="245.25,248.35 246.61,248.16 247.58,247.57 248.16,246.61 248.35,245.25"/>
    </edge>
    <edge id=":(3,3)_13" function="internal">
        <lane id=":(3,3)_13_0" index="0" speed="11.11" length="9.50" shape="245.25,248.35 254.75,248.35"/>
    </edge>
    <edge id=":(3,3)_14" function="internal">
        <lane id=":(3,3)_14_0" index="0" speed="11.11" length="5.28" shape="245.25,248.35 248.05,248.75 250.05,249.95 250.11,250.05"/>
    </edge>
    <edge id=":(3,3)_15" function="internal">
        <lane id=":(3,3)_15_0" index="0" speed="11.11" length="2.41" shape="245.25,248.35 246.49,249.18 246.90,250.00"/>
    </edge>
    <edge id=":(3,3)_22" function="internal">
        <lane id=":(3,3)_22_0" index="0" speed="11.11" length="5.04" shape="250.11,250.05 251.25,251.95 251.65,254.75"/>
    </edge>
    <edge id=":(3,3)_23" function="internal">
        <lane id=":(3,3)_23_0" index="0" speed="11.11" length="2.41" shape="246.90,250.00 246.49,250.82 245.25,251.65"/>
    </edge>
    <edge id=":(3,4)_0" function="internal">
        <lane id=":(3,4)_0_0" index="0" speed="11.11" length="5.00" shape="248.35,379.75 248.16,378.39 247.57,377.42 246.61,376.84 245.25,376.65"/>
    </edge>
    <edge id=":(3,4)_1" function="internal">
        <lane id=":(3,4)_1_0" index="0" speed="11.11" length="9.50" shape="248.35,379.75 248.35,370.25"/>
    </edge>
    <edge id=":(3,4)_2" function="internal">
        <lane id=":(3,4)_2_0" index="0" speed="11.11" length="5.28" shape="248.35,379.75 248.75,376.95 249.95,374.95 250.05,374.89"/>
    </edge>
    <edge id=":(3,4)_3" function="internal">
        <lane id=":(3,4)_3_0" index="0" speed="11.11" length="2.41" shape="248.35,379.75 249.18,378.51 250.00,378.10"/>
    </edge>
    <edge id=":(3,4)_16" function="internal">
        <lane id=":(3,4)_16_0" index="0" speed="11.11" length="5.04" shape="250.05,374.89 251.95,373.75 254.75,373.35"/>
    </edge>
    <edge id=":(3,4)_17" function="internal">
        <lane id=":(3,4)_17_0" index="0" speed="11.11" length="2.41" shape="250.00,378.10 250.82,378.51 251.65,379.75"/>
    </edge>
    <edge id=":(3,4)_4" function="internal">
        <lane id=":(3,4)_4_0" index="0" speed="11.11" length="5.00" shape="254.75,376.65 253.39,376.84 252.42,377.42 251.84,378.39 251.65,379.75"/>
    </edge>