<routes>
<vType decel="4.5" accel="2" id="Car" maxSpeed="100.0" sigma="0.5" length="5.0"/>
<route id="route_ns" edges="n_0 0_s"/><route id="route_sn" edges="s_0 0_n"/>
<route id="route_ew" edges="e_0 0_w"/><route id="route_we" edges="w_0 0_e"/>
<flow depart="1" id="flow_n_s" route="route_ns" type="Car" begin="0" end="3600" probability="0.2"/>
<flow depart="1" id="flow_s_n" route="route_sn" type="Car" begin="0" end="3600" probability="0.2"/>
<flow depart="1" id="flow_e_w" route="route_ew" type="Car" begin="0" end="3600" probability="0.2"/>
<flow depart="1" id="flow_w_e" route="route_we" type="Car" begin="0" end="3600" probability="0.5"/>
</routes>
