<?xml version="1.0"?>
<!-- generated on 2018-06-01 01:05:25.079893 by $Id$ -->
<trips>
    <vType id="passenger" vClass="passenger"/>
    <trip id="veh0" depart="0.00" departLane="best" from="11711373#1" to="-11710497#0" type="passenger"/>
    <trip id="veh1" depart="0.85" departLane="best" from="-11833004" to="-42432260#0" type="passenger"/>
    <trip id="veh2" depart="1.70" departLane="best" from="11945577" to="11962498#3" type="passenger"/>
    <trip id="veh3" depart="2.55" departLane="best" from="331173870#3" to="-11962498#2" type="passenger"/>
    <trip id="veh4" depart="3.39" departLane="best" from="-11755268" to="11742233" type="passenger"/>
    <trip id="veh5" depart="4.24" departLane="best" from="-11687735#1" to="-42432260#0" type="passenger"/>
    <trip id="veh6" depart="5.09" departLane="best" from="11727901#0" to="11755268" type="passenger"/>
    <trip id="veh7" depart="5.94" departLane="best" from="293149229#0" to="-11694981#0" type="passenger"/>
    <trip id="veh8" depart="6.79" departLane="best" from="28491261#8" to="121054524" type="passenger"/>
    <trip id="veh9" depart="7.64" departLane="best" from="-11956778#2" to="-320948875#0" type="passenger"/>
    <trip id="veh10" depart="8.49" departLane="best" from="-11711373#2" to="-28491261#0" type="passenger"/>
    <trip id="veh11" depart="9.33" departLane="best" from="320948875#0" to="11840126" type="passenger"/>
    <trip id="veh12" depart="10.18" departLane="best" from="293149228#0" to="237385955#3" type="passenger"/>
    <trip id="veh13" depart="11.03" departLane="best" from="-320948876#2" to="402298704" type="passenger"/>
    <trip id="veh14" depart="11.88" departLane="best" from="-121054524" to="11825574" type="passenger"/>
    <trip id="veh15" depart="12.73" departLane="best" from="294294299#4" to="11840126" type="passenger"/>
    <trip id="veh16" depart="13.58" departLane="best" from="320948875#0" to="11833004" type="passenger"/>
    <trip id="veh17" depart="14.43" departLane="best" from="11737884#6" to="-11713940#2" type="passenger"/>
    <trip id="veh18" depart="15.27" departLane="best" from="-11755268" to="-55170192#2" type="passenger"/>
    <trip id="veh19" depart="16.12" departLane="best" from="-11711373#2" to="-494284371#0" type="passenger"/>
    <trip id="veh20" depart="16.97" departLane="best" from="-11711373#2" to="-55170192#0" type="passenger"/>
    <trip id="veh21" depart="17.82" departLane="best" from="11710497#0" to="11711373#2" type="passenger"/>
    <trip id="veh22" depart="18.67" departLane="best" from="-121054524" to="-42432260#0" type="passenger"/>
    <trip id="veh23" depart="19.52" departLane="best" from="-11833004" to="320948876#4" type="passenger"/>
    <trip id="veh24" depart="20.37" departLane="best" from="11713940#2" to="11840126" type="passenger"/>
    <trip id="veh25" depart="21.21" departLane="best" from="-11734052#3" to="237385955#3" type="passenger"/>
    <trip id="veh26" depart="22.06" departLane="best" from="55170192#0" to="11956778#0" type="passenger"/>
    <trip id="veh27" depart="22.91" departLane="best" from="-320948876#5" to="121054524" type="passenger"/>
    <trip id="veh28" depart="23.76" departLane="best" from="302256387#2" to="270554726#2" type="passenger"/>
    <trip id="veh29" depart="24.61" departLane="best" from="-11755268" to="-11710497#0" type="passenger"/>
    <trip id="veh30" depart="25.46" departLane="best" from="-11755268" to="320948876#4" type="passenger"/>
    <trip id="veh31" depart="26.31" departLane="best" from="320948875#1" to="11687735#1" type="passenger"/>
    <trip id="veh32" depart="27.15" departLane="best" from="11729108" to="11713163#3" type="passenger"/>
    <trip id="veh33" depart="28.00" departLane="best" from="42432260#0" to="11734052#3" type="passenger"/>
    <trip id="veh34" depart="28.85" departLane="best" from="-11833004" to="-494284371#0" type="passenger"/>
    <trip id="veh35" depart="29.70" departLane="best" from="-320948876#5" to="-55170192#0" type="passenger"/>
    <trip id="veh36" depart="30.55" departLane="best" from="-353963814#3" to="317788870#1" type="passenger"/>
    <trip id="veh37" depart="31.40" departLane="best" from="-237385955#3" to="-42432260#0" type="passenger"/>
    <trip id="veh38" depart="32.25" departLane="best" from="55170192#1" to="11742233" type="passenger"/>
    <trip id="veh39" depart="33.09" departLane="best" from="-11711373#2" to="-11727901#0" type="passenger"/>
    <trip id="veh40" depart="33.94" departLane="best" from="-11727999#1" to="11840126" type="passenger"/>
    <trip id="veh41" depart="34.79" departLane="best" from="28491261#0" to="11727999#1" type="passenger"/>
    <trip id="veh42" depart="35.64" departLane="best" from="-11700867#2" to="11711373#2" type="passenger"/>
    <trip id="veh43" depart="36.49" departLane="best" from="55170192#0" to="11755268" type="passenger"/>
    <trip id="veh44" depart="37.34" departLane="best" from="55170192#0" to="308544895#1" type="passenger"/>
    <trip id="veh45" depart="38.19" departLane="best" from="-11687735#1" to="237385955#3" type="passenger"/>
    <trip id="veh46" depart="39.04" departLane="best" from="11729108" to="11755268" type="passenger"/>
    <trip id="veh47" depart="39.88" departLane="best" from="-11833004" to="11956778#1" type="passenger"/>
    <trip id="veh48" depart="40.73" departLane="best" from="-11727999#1" to="11734052#0" type="passenger"/>
    <trip id="veh49" depart="41.58" departLane="best" from="-294283125" to="331173870#4" type="passenger"/>
    <trip id="veh50" depart="42.43" departLane="best" from="-317788870#1" to="-323751621#0" type="passenger"/>
    <trip id="veh51" depart="43.28" departLane="best" from="-11840126" to="11956345#3" type="passenger"/>
    <trip id="veh52" depart="44.13" departLane="best" from="11710497#0" to="-320948875#0" type="passenger"/>
    <trip id="veh53" depart="44.98" departLane="best" from="26321025#0" to="11755268" type="passenger"/>
    <trip id="veh54" depart="45.82" departLane="best" from="28491261#0" to="11755268" type="passenger"/>
    <trip id="veh55" depart="46.67" departLane="best" from="-11683958#0" to="11687735#1" type="passenger"/>
    <trip id="veh56" depart="47.52" departLane="best" from="-11687735#1" to="320948876#4" type="passenger"/>
    <trip id="veh57" depart="48.37" departLane="best" from="320948875#3" to="294294299#2" type="passenger"/>
    <trip id="veh58" depart="49.22" departLane="best" from="-11840126" to="-11735802" type="passenger"/>
    <trip id="veh59" depart="50.07" departLane="best" from="320948875#3" to="323751621#2" type="passenger"/>
    <trip id="veh60" depart="50.92" departLane="best" from="-11711373#2" to="11737884#8" type="passenger"/>
    <trip id="veh61" depart="51.76" departLane="best" from="-11700867#2" to="26321032#2" type="passenger"/>
    <trip id="veh62" depart="52.61" departLane="best" from="26321030#3" to="-28491261#8" type="passenger"/>
    <trip id="veh63" depart="53.46" departLane="best" from="-308544895#1" to="11809341#2" type="passenger"/>
    <trip id="veh64" depart="54.31" departLane="best" from="-11833004" to="308544895#1" type="passenger"/>
    <trip id="veh65" depart="55.16" departLane="best" from="-28491261#2" to="-42432260#0" type="passenger"/>
    <trip id="veh66" depart="56.01" departLane="best" from="-320948876#5" to="237385955#3" type="passenger"/>
    <trip id="veh67" depart="56.86" departLane="best" from="-11742233" to="11687735#1" type="passenger"/>
    <trip id="veh68" depart="57.70" departLane="best" from="55170192#0" to="11956778#2" type="passenger"/>
    <trip id="veh69" depart="58.55" departLane="best" from="-294283125" to="11747683#1" type="passenger"/>
    <trip id="veh70" depart="59.40" departLane="best" from="-11727999#1" to="-42432260#0" type="passenger"/>
    <trip id="veh71" depart="60.25" departLane="best" from="-11956778#2" to="11833004" type="passenger"/>
    <trip id="veh72" depart="61.10" departLane="best" from="-11755268" to="-42432260#0" type="passenger"/>
    <trip id="veh73" depart="61.95" departLane="best" from="-11755268" to="317788870#1" type="passenger"/>
    <trip id="veh74" depart="62.80" departLane="best" from="320948875#0" to="-11853134" type="passenger"/>
    <trip id="veh75" depart="63.64" departLane="best" from="-11755268" to="11956778#2" type="passenger"/>
    <trip id="veh76" depart="64.49" departLane="best" from="-11755268" to="-294921218#1" type="passenger"/>
    <trip id="veh77" depart="65.34" departLane="best" from="494284371#0" to="11833004" type="passenger"/>
    <trip id="veh78" depart="66.19" departLane="best" from="-308544895#1" to="293149228#0" type="passenger"/>
    <trip id="veh79" depart="67.04" departLane="best" from="293149228#0" to="-331173871#1" type="passenger"/>
    <trip id="veh80" depart="67.89" departLane="best" from="-11711373#2" to="11727999#1" type="passenger"/>
    <trip id="veh81" depart="68.74" departLane="best" from="-28491261#2" to="11734068#1" type="passenger"/>
    <trip id="veh82" depart="69.58" departLane="best" from="11834237#0" to="11957936#2" type="passenger"/>
    <trip id="veh83" depart="70.43" departLane="best" from="55170192#0" to="-28491261#0" type="passenger"/>
    <trip id="veh84" depart="71.28" departLane="best" from="-237385955#3" to="11700867#2" type="passenger"/>
    <trip id="veh85" depart="72.13" departLane="best" from="320948875#0" to="-494284371#0" type="passenger"/>
    <trip id="veh86" depart="72.98" departLane="best" from="-11742233" to="11734052#3" type="passenger"/>
    <trip id="veh87" depart="73.83" departLane="best" from="-28491261#1" to="-55170192#0" type="passenger"/>
    <trip id="veh88" depart="74.68" departLane="best" from="-11831739" to="320948876#4" type="passenger"/>
    <trip id="veh89" depart="75.52" departLane="best" from="-294283125" to="308544895#1" type="passenger"/>
    <trip id="veh90" depart="76.37" departLane="best" from="-320948876#5" to="-11731871#1" type="passenger"/>
    <trip id="veh91" depart="77.22" departLane="best" from="55170192#0" to="320948876#4" type="passenger"/>
    <trip id="veh92" depart="78.07" departLane="best" from="-237385955#3" to="-11747683#0" type="passenger"/>
    <trip id="veh93" depart="78.92" departLane="best" from="-121054524" to="402298704" type="passenger"/>
    <trip id="veh94" depart="79.77" departLane="best" from="-11833004" to="293149228#0" type="passenger"/>
    <trip id="veh95" depart="80.62" departLane="best" from="-294283125" to="11727999#1" type="passenger"/>
    <trip id="veh96" depart="81.46" departLane="best" from="-320948876#5" to="237385955#3" type="passenger"/>
    <trip id="veh97" depart="82.31" departLane="best" from="-11734052#3" to="11687735#1" type="passenger"/>
    <trip id="veh98" depart="83.16" departLane="best" from="55170192#0" to="11833004" type="passenger"/>
    <trip id="veh99" depart="84.01" departLane="best" from="-320948876#5" to="26321032#2" type="passenger"/>
    <trip id="veh100" depart="84.86" departLane="best" from="-11700867#2" to="11833004" type="passenger"/>
    <trip id="veh101" depart="85.71" departLane="best" from="-317788870#1" to="308544895#1" type="passenger"/>
    <trip id="veh102" depart="86.56" departLane="best" from="-11755268" to="-28491261#0" type="passenger"/>
    <trip id="veh103" depart="87.40" departLane="best" from="331173870#1" to="-494284371#0" type="passenger"/>
    <trip id="veh104" depart="88.25" departLane="best" from="-62343617" to="11840126" type="passenger"/>
    <trip id="veh105" depart="89.10" departLane="best" from="-24850351#0" to="11833004" type="passenger"/>
    <trip id="veh106" depart="89.95" departLane="best" from="-317788870#1" to="320948876#4" type="passenger"/>
    <trip id="veh107" depart="90.80" departLane="best" from="-11742233" to="237385955#3" type="passenger"/>
    <trip id="veh108" depart="91.65" departLane="best" from="-11755268" to="11713163#3" type="passenger"/>
    <trip id="veh109" depart="92.50" departLane="best" from="11729108" to="11687735#1" type="passenger"/>
    <trip id="veh110" depart="93.34" departLane="best" from="-11952903#1" to="26321032#2" type="passenger"/>
    <trip id="veh111" depart="94.19" departLane="best" from="55170192#2" to="494284371#3" type="passenger"/>
    <trip id="veh112" depart="95.04" departLane="best" from="-11711373#1" to="-42432260#0" type="passenger"/>
    <trip id="veh113" depart="95.89" departLane="best" from="-11833004" to="320948876#4" type="passenger"/>
    <trip id="veh114" depart="96.74" departLane="best" from="-121054524" to="-320948875#0" type="passenger"/>
    <trip id="veh115" depart="97.59" departLane="best" from="294921123#1" to="121054524" type="passenger"/>
    <trip id="veh116" depart="98.44" departLane="best" from="11710497#0" to="402298704" type="passenger"/>
    <trip id="veh117" depart="99.28" departLane="best" from="11729108" to="-11694981#2" type="passenger"/>
    <trip id="veh118" depart="100.13" departLane="best" from="293149229#8" to="11687735#1" type="passenger"/>
    <trip id="veh119" depart="100.98" departLane="best" from="11729108" to="320948876#4" type="passenger"/>
    <trip id="veh120" depart="101.83" departLane="best" from="-11727999#1" to="-28491261#0" type="passenger"/>
    <trip id="veh121" depart="102.68" departLane="best" from="-11719980" to="11828786#1" type="passenger"/>
    <trip id="veh122" depart="103.53" departLane="best" from="-11833004" to="11840126" type="passenger"/>
    <trip id="veh123" depart="104.38" departLane="best" from="11828786#1" to="-42432260#0" type="passenger"/>
    <trip id="veh124" depart="105.22" departLane="best" from="11710497#0" to="-55170192#0" type="passenger"/>
    <trip id="veh125" depart="106.07" departLane="best" from="-308544895#1" to="317788870#1" type="passenger"/>
    <trip id="veh126" depart="106.92" departLane="best" from="317788870#0" to="-270554726#0" type="passenger"/>
    <trip id="veh127" depart="107.77" departLane="best" from="-28491261#2" to="-55170192#0" type="passenger"/>
    <trip id="veh128" depart="108.62" departLane="best" from="11710497#1" to="-55170192#0" type="passenger"/>
    <trip id="veh129" depart="109.47" departLane="best" from="11952903#1" to="11825574" type="passenger"/>
    <trip id="veh130" depart="110.32" departLane="best" from="-28491261#8" to="-11700867#1" type="passenger"/>
    <trip id="veh131" depart="111.17" departLane="best" from="-11711373#2" to="317788870#1" type="passenger"/>
    <trip id="veh132" depart="112.01" departLane="best" from="42432260#0" to="11755268" type="passenger"/>
    <trip id="veh133" depart="112.86" departLane="best" from="294921218#0" to="11833004" type="passenger"/>
    <trip id="veh134" depart="113.71" departLane="best" from="-11734052#3" to="-28491261#7" type="passenger"/>
    <trip id="veh135" depart="114.56" departLane="best" from="-11840126" to="317788870#1" type="passenger"/>
    <trip id="veh136" depart="115.41" departLane="best" from="28491261#0" to="308544895#1" type="passenger"/>
    <trip id="veh137" depart="116.26" departLane="best" from="353963814#1" to="-42432260#0" type="passenger"/>
    <trip id="veh138" depart="117.11" departLane="best" from="-11831739" to="-28491261#0" type="passenger"/>
    <trip id="veh139" depart="117.95" departLane="best" from="28491261#0" to="317788870#1" type="passenger"/>
    <trip id="veh140" depart="118.80" departLane="best" from="-237385955#3" to="11840126" type="passenger"/>
    <trip id="veh141" depart="119.65" departLane="best" from="-11734052#3" to="320948876#4" type="passenger"/>
    <trip id="veh142" depart="120.50" departLane="best" from="293149229#1" to="317788870#1" type="passenger"/>
    <trip id="veh143" depart="121.35" departLane="best" from="-11687735#1" to="237385955#3" type="passenger"/>
    <trip id="veh144" depart="122.20" departLane="best" from="293149229#1" to="-55170192#0" type="passenger"/>
    <trip id="veh145" depart="123.05" departLane="best" from="320948875#0" to="308544895#1" type="passenger"/>
    <trip id="veh146" depart="123.89" departLane="best" from="-294921218#0" to="11687735#1" type="passenger"/>
    <trip id="veh147" depart="124.74" departLane="best" from="28491261#0" to="-494284371#0" type="passenger"/>
    <trip id="veh148" depart="125.59" departLane="best" from="-11687735#1" to="-353963814#1" type="passenger"/>
    <trip id="veh149" depart="126.44" departLane="best" from="-11956778#2" to="308544895#1" type="passenger"/>
    <trip id="veh150" depart="127.29" departLane="best" from="494284371#4" to="-55170192#0" type="passenger"/>
    <trip id="veh151" depart="128.14" departLane="best" from="11713163#1" to="11713940#2" type="passenger"/>
    <trip id="veh152" depart="128.99" departLane="best" from="55170192#0" to="11755268" type="passenger"/>
    <trip id="veh153" depart="129.83" departLane="best" from="494284371#0" to="-28491261#0" type="passenger"/>
    <trip id="veh154" depart="130.68" departLane="best" from="55170192#0" to="-323751621#0" type="passenger"/>
    <trip id="veh155" depart="131.53" departLane="best" from="494284371#0" to="-55170192#0" type="passenger"/>
    <trip id="veh156" depart="132.38" departLane="best" from="-11727999#0" to="11734052#0" type="passenger"/>
    <trip id="veh157" depart="133.23" departLane="best" from="11834136" to="11687735#1" type="passenger"/>
    <trip id="veh158" depart="134.08" departLane="best" from="11700867#1" to="11742233" type="passenger"/>
    <trip id="veh159" depart="134.93" departLane="best" from="-121054524" to="11833004" type="passenger"/>
    <trip id="veh160" depart="135.77" departLane="best" from="-11683958#1" to="320948876#4" type="passenger"/>
    <trip id="veh161" depart="136.62" departLane="best" from="-320948876#5" to="237385955#3" type="passenger"/>
    <trip id="veh162" depart="137.47" departLane="best" from="11956344" to="11957732#0" type="passenger"/>
    <trip id="veh163" depart="138.32" departLane="best" from="-121054524" to="-11831739" type="passenger"/>
    <trip id="veh164" depart="139.17" departLane="best" from="11729108" to="11700867#1" type="passenger"/>
    <trip id="veh165" depart="140.02" departLane="best" from="-11952362#1" to="302256388" type="passenger"/>
    <trip id="veh166" depart="140.87" departLane="best" from="11829415" to="11687735#1" type="passenger"/>
    <trip id="veh167" depart="141.71" departLane="best" from="-11840126" to="11727999#1" type="passenger"/>
    <trip id="veh168" depart="142.56" departLane="best" from="-237385955#3" to="11687735#0" type="passenger"/>
    <trip id="veh169" depart="143.41" departLane="best" from="494284371#0" to="11962498#3" type="passenger"/>
    <trip id="veh170" depart="144.26" departLane="best" from="42432260#0" to="11840126" type="passenger"/>
    <trip id="veh171" depart="145.11" departLane="best" from="-11840126" to="11809341#0" type="passenger"/>
    <trip id="veh172" depart="145.96" departLane="best" from="-11683958#0" to="-55170192#0" type="passenger"/>
    <trip id="veh173" depart="146.81" departLane="best" from="11729108" to="11734052#3" type="passenger"/>
    <trip id="veh174" depart="147.65" departLane="best" from="-294283125" to="-42432260#0" type="passenger"/>
    <trip id="veh175" depart="148.50" departLane="best" from="-308544895#1" to="317788870#1" type="passenger"/>
    <trip id="veh176" depart="149.35" departLane="best" from="28491261#0" to="-320948875#0" type="passenger"/>
    <trip id="veh177" depart="150.20" departLane="best" from="-11711373#2" to="11742233" type="passenger"/>
    <trip id="veh178" depart="151.05" departLane="best" from="11710497#0" to="11700867#2" type="passenger"/>
    <trip id="veh179" depart="151.90" departLane="best" from="293149229#9" to="26321032#2" type="passenger"/>
    <trip id="veh180" depart="152.75" departLane="best" from="11729108" to="-42432260#0" type="passenger"/>
    <trip id="veh181" depart="153.59" departLane="best" from="-11742233" to="-11710497#0" type="passenger"/>
    <trip id="veh182" depart="154.44" departLane="best" from="-11825574" to="11734345#5" type="passenger"/>
    <trip id="veh183" depart="155.29" departLane="best" from="320948875#0" to="-11947670" type="passenger"/>
    <trip id="veh184" depart="156.14" departLane="best" from="-237385955#3" to="11947670" type="passenger"/>
    <trip id="veh185" depart="156.99" departLane="best" from="-11742233" to="121054524" type="passenger"/>
    <trip id="veh186" depart="157.84" departLane="best" from="-308544895#1" to="-494284371#0" type="passenger"/>
    <trip id="veh187" depart="158.69" departLane="best" from="11729108" to="-11690285#1" type="passenger"/>
    <trip id="veh188" depart="159.53" departLane="best" from="11957936#0" to="26321032#2" type="passenger"/>
    <trip id="veh189" depart="160.38" departLane="best" from="-11719980" to="11727999#1" type="passenger"/>
    <trip id="veh190" depart="161.23" departLane="best" from="-317788870#1" to="-11731871#1" type="passenger"/>
    <trip id="veh191" depart="162.08" departLane="best" from="11683958#0" to="331173870#0" type="passenger"/>
    <trip id="veh192" depart="162.93" departLane="best" from="331173870#2" to="11840126" type="passenger"/>
    <trip id="veh193" depart="163.78" departLane="best" from="11829415" to="11742233" type="passenger"/>
    <trip id="veh194" depart="164.63" departLane="best" from="294294299#6" to="11809341#0" type="passenger"/>
    <trip id="veh195" depart="165.47" departLane="best" from="331173871#2" to="26321030#3" type="passenger"/>
    <trip id="veh196" depart="166.32" departLane="best" from="-308544895#1" to="-494284371#4" type="passenger"/>
    <trip id="veh197" depart="167.17" departLane="best" from="-11828786#1" to="11956345#2" type="passenger"/>
    <trip id="veh198" depart="168.02" departLane="best" from="26321030#3" to="11755268" type="passenger"/>
    <trip id="veh199" depart="168.87" departLane="best" from="11710497#0" to="-55170192#0" type="passenger"/>
    <trip id="veh200" depart="169.72" departLane="best" from="-11711373#2" to="-55170192#0" type="passenger"/>
    <trip id="veh201" depart="170.57" departLane="best" from="-11833004" to="11687735#1" type="passenger"/>
    <trip id="veh202" depart="171.41" departLane="best" from="-320948876#5" to="-302256387#2" type="passenger"/>
    <trip id="veh203" depart="172.26" departLane="best" from="-11755268" to="121054524" type="passenger"/>
    <trip id="veh204" depart="173.11" departLane="best" from="11737884#8" to="-11820348" type="passenger"/>
    <trip id="veh205" depart="173.96" departLane="best" from="-237385955#3" to="-42432260#0" type="passenger"/>
    <trip id="veh206" depart="174.81" departLane="best" from="-270554726#0" to="317788870#1" type="passenger"/>
    <trip id="veh207" depart="175.66" departLane="best" from="-353963814#2" to="121054524" type="passenger"/>
    <trip id="veh208" depart="176.51" departLane="best" from="320948875#0" to="26321032#2" type="passenger"/>
    <trip id="veh209" depart="177.35" departLane="best" from="-121054524" to="-11694981#0" type="passenger"/>
    <trip id="veh210" depart="178.20" departLane="best" from="320948875#0" to="331173870#4" type="passenger"/>
    <trip id="veh211" depart="179.05" departLane="best" from="-24850351#0" to="26321032#2" type="passenger"/>
    <trip id="veh212" depart="179.90" departLane="best" from="-320948876#5" to="11840126" type="passenger"/>
    <trip id="veh213" depart="180.75" departLane="best" from="-11755268" to="-42432260#0" type="passenger"/>
    <trip id="veh214" depart="181.60" departLane="best" from="-294283125" to="-11710497#0" type="passenger"/>
    <trip id="veh215" depart="182.45" departLane="best" from="-11956778#2" to="121054524" type="passenger"/>
    <trip id="veh216" depart="183.29" departLane="best" from="-237385955#3" to="-320948875#0" type="passenger"/>
    <trip id="veh217" depart="184.14" departLane="best" from="-302256387#2" to="-28491261#7" type="passenger"/>
    <trip id="veh218" depart="184.99" departLane="best" from="-11687735#1" to="11956778#2" type="passenger"/>
    <trip id="veh219" depart="185.84" departLane="best" from="-11727999#1" to="11734052#3" type="passenger"/>
    <trip id="veh220" depart="186.69" departLane="best" from="-11700867#2" to="11711373#2" type="passenger"/>
    <trip id="veh221" depart="187.54" departLane="best" from="-11755268" to="11694981#0" type="passenger"/>
    <trip id="veh222" depart="188.39" departLane="best" from="26321021#1" to="11711373#2" type="passenger"/>
    <trip id="veh223" depart="189.24" departLane="best" from="11957936#2" to="294294299#2" type="passenger"/>
    <trip id="veh224" depart="190.08" departLane="best" from="-11833004" to="-11956345#3" type="passenger"/>
    <trip id="veh225" depart="190.93" departLane="best" from="-11687735#1" to="11755268" type="passenger"/>
    <trip id="veh226" depart="191.78" departLane="best" from="62343617" to="11700867#2" type="passenger"/>
    <trip id="veh227" depart="192.63" departLane="best" from="11727901#0" to="28491261#7" type="passenger"/>
    <trip id="veh228" depart="193.48" departLane="best" from="11727999#0" to="26321032#2" type="passenger"/>
    <trip id="veh229" depart="194.33" departLane="best" from="494284371#0" to="-42432260#0" type="passenger"/>
    <trip id="veh230" depart="195.18" departLane="best" from="-11687735#1" to="-320948875#0" type="passenger"/>
    <trip id="veh231" depart="196.02" departLane="best" from="-11727999#1" to="11956778#2" type="passenger"/>
    <trip id="veh232" depart="196.87" departLane="best" from="-320948876#5" to="-42432260#0" type="passenger"/>
    <trip id="veh233" depart="197.72" departLane="best" from="11737884#0" to="26321032#2" type="passenger"/>
    <trip id="veh234" depart="198.57" departLane="best" from="-11734052#3" to="11840126" type="passenger"/>
    <trip id="veh235" depart="199.42" departLane="best" from="11956778#1" to="-28491261#0" type="passenger"/>
    <trip id="veh236" depart="200.27" departLane="best" from="293149230#0" to="402298704" type="passenger"/>
    <trip id="veh237" depart="201.12" departLane="best" from="-11727901#0" to="-11710497#0" type="passenger"/>
    <trip id="veh238" depart="201.96" departLane="best" from="-11947670" to="11962498#3" type="passenger"/>
    <trip id="veh239" depart="202.81" departLane="best" from="494284371#0" to="11713163#4" type="passenger"/>
    <trip id="veh240" depart="203.66" departLane="best" from="11820348" to="-11952362#2" type="passenger"/>
    <trip id="veh241" depart="204.51" departLane="best" from="11734068#3" to="11840126" type="passenger"/>
    <trip id="veh242" depart="205.36" departLane="best" from="-11711373#2" to="26321032#2" type="passenger"/>
    <trip id="veh243" depart="206.21" departLane="best" from="320948875#0" to="11840126" type="passenger"/>
    <trip id="veh244" depart="207.06" departLane="best" from="-11727999#1" to="402298704" type="passenger"/>
    <trip id="veh245" depart="207.90" departLane="best" from="28491261#0" to="11700867#2" type="passenger"/>
    <trip id="veh246" depart="208.75" departLane="best" from="-317788870#1" to="11700867#2" type="passenger"/>
    <trip id="veh247" depart="209.60" departLane="best" from="320948875#0" to="294283125" type="passenger"/>
    <trip id="veh248" depart="210.45" departLane="best" from="11710497#0" to="294294285" type="passenger"/>
    <trip id="veh249" depart="211.30" departLane="best" from="11737884#8" to="11734052#1" type="passenger"/>
    <trip id="veh250" depart="212.15" departLane="best" from="11839510#1" to="402298704" type="passenger"/>
    <trip id="veh251" depart="213.00" departLane="best" from="-320948876#5" to="11737884#6" type="passenger"/>
    <trip id="veh252" depart="213.84" departLane="best" from="-11833004" to="308544895#1" type="passenger"/>
    <trip id="veh253" depart="214.69" departLane="best" from="-302256386" to="11840126" type="passenger"/>
    <trip id="veh254" depart="215.54" departLane="best" from="-121054524" to="-11710497#0" type="passenger"/>
    <trip id="veh255" depart="216.39" departLane="best" from="320948875#0" to="-323751621#4" type="passenger"/>
    <trip id="veh256" depart="217.24" departLane="best" from="-11755268" to="293149230#2" type="passenger"/>
    <trip id="veh257" depart="218.09" departLane="best" from="-11956778#2" to="317788870#1" type="passenger"/>
    <trip id="veh258" depart="218.94" departLane="best" from="11737884#2" to="-55170192#0" type="passenger"/>
    <trip id="veh259" depart="219.78" departLane="best" from="-11687735#1" to="323751621#3" type="passenger"/>
    <trip id="veh260" depart="220.63" departLane="best" from="-11711373#2" to="237385955#3" type="passenger"/>
    <trip id="veh261" depart="221.48" departLane="best" from="11734068#3" to="11956778#2" type="passenger"/>
    <trip id="veh262" depart="222.33" departLane="best" from="-308544895#1" to="293149229#7" type="passenger"/>
    <trip id="veh263" depart="223.18" departLane="best" from="-11711373#2" to="-42432260#0" type="passenger"/>
    <trip id="veh264" depart="224.03" departLane="best" from="-353963814#0" to="11734345#3" type="passenger"/>
    <trip id="veh265" depart="224.88" departLane="best" from="-320948875#1" to="11727999#1" type="passenger"/>
    <trip id="veh266" depart="225.72" departLane="best" from="11956345#3" to="11700867#1" type="passenger"/>
    <trip id="veh267" depart="226.57" departLane="best" from="11737884#4" to="-55170192#0" type="passenger"/>
    <trip id="veh268" depart="227.42" departLane="best" from="-11833004" to="-28491261#0" type="passenger"/>
    <trip id="veh269" depart="228.27" departLane="best" from="-11742233" to="-28491261#0" type="passenger"/>
    <trip id="veh270" depart="229.12" departLane="best" from="-320948876#1" to="26321032#2" type="passenger"/>
    <trip id="veh271" depart="229.97" departLane="best" from="-11742233" to="-42432260#0" type="passenger"/>