<?xml version="1.0" encoding="UTF-8"?>

<!-- generated on Fri 01 Jun 2018 02:00:44 AM EDT by Netedit Version 0.32.0
<?xml version="1.0" encoding="UTF-8"?>

<configuration xmlns:xsi="http://www.w3.org/2001/XMLSchema-instance" xsi:noNamespaceSchemaLocation="http://sumo.dlr.de/xsd/netconvertConfiguration.xsd">

    <input>
        <sumo-net-file value="osm.net.xml"/>
    </input>

    <output>
        <output-file value="osm.net.xml"/>
        <output.street-names value="true"/>
    </output>

    <processing>
        <no-turnarounds value="true"/>
        <offset.disable-normalization value="true"/>
        <lefthand value="false"/>
        <junctions.corner-detail value="5"/>
        <rectangular-lane-cut value="false"/>
        <walkingareas value="false"/>
    </processing>

</configuration>
-->

<net version="0.27" junctionCornerDetail="5" xmlns:xsi="http://www.w3.org/2001/XMLSchema-instance" xsi:noNamespaceSchemaLocation="http://sumo.dlr.de/xsd/net_file.xsd">

    <location netOffset="-587711.24,-4476497.24" convBoundary="0.00,0.00,1430.10,1565.85" origBoundary="-79.965748,40.434382,-79.948839,40.448535" projParameter="+proj=utm +zone=17 +ellps=WGS84 +datum=WGS84 +units=m +no_defs"/>

    <type id="highway.bridleway" priority="1" numLanes="1" speed="2.78" allow="pedestrian" oneway="1" width="2.00"/>
    <type id="highway.bus_guideway" priority="1" numLanes="1" speed="8.33" allow="bus" oneway="1"/>
    <type id="highway.cycleway" priority="1" numLanes="1" speed="5.56" allow="bicycle" oneway="0" width="1.00"/>
    <type id="highway.footway" priority="1" numLanes="1" speed="2.78" allow="pedestrian" oneway="1" width="2.00"/>
    <type id="highway.ford" priority="1" numLanes="1" speed="2.78" allow="army" oneway="0"/>
    <type id="highway.living_street" priority="3" numLanes="1" speed="2.78" disallow="tram rail_urban rail rail_electric ship" oneway="0"/>
    <type id="highway.motorway" priority="13" numLanes="2" speed="44.44" allow="private emergency authority army vip passenger hov taxi bus coach delivery truck trailer motorcycle evehicle custom1 custom2" oneway="1"/>
    <type id="highway.motorway_link" priority="12" numLanes="1" speed="22.22" allow="private emergency authority army vip passenger hov taxi bus coach delivery truck trailer motorcycle evehicle custom1 custom2" oneway="1"/>
    <type id="highway.path" priority="1" numLanes="1" speed="2.78" allow="bicycle pedestrian" oneway="1" width="2.00"/>
    <type id="highway.pedestrian" priority="1" numLanes="1" speed="2.78" allow="pedestrian" oneway="1" width="2.00"/>
    <type id="highway.primary" priority="9" numLanes="2" speed="27.78" disallow="tram rail_urban rail rail_electric ship" oneway="0"/>
    <type id="highway.primary_link" priority="8" numLanes="1" speed="22.22" disallow="tram rail_urban rail rail_electric ship" oneway="0"/>
    <type id="highway.raceway" priority="14" numLanes="2" speed="83.33" allow="vip" oneway="0"/>
    <type id="highway.residential" priority="4" numLanes="1" speed="13.89" disallow="tram rail_urban rail rail_electric ship" oneway="0"/>
    <type id="highway.secondary" priority="7" numLanes="2" speed="27.78" disallow="tram rail_urban rail rail_electric ship" oneway="0"/>
    <type id="highway.secondary_link" priority="6" numLanes="1" speed="22.22" disallow="tram rail_urban rail rail_electric ship" oneway="0"/>
    <type id="highway.service" priority="2" numLanes="1" speed="5.56" allow="delivery bicycle pedestrian" oneway="0"/>
    <type id="highway.services" priority="1" numLanes="1" speed="8.33" disallow="tram rail_urban rail rail_electric ship" oneway="0"/>
    <type id="highway.stairs" priority="1" numLanes="1" speed="1.39" allow="pedestrian" oneway="1" width="2.00"/>
    <type id="highway.step" priority="1" numLanes="1" speed="1.39" allow="pedestrian" oneway="1" width="2.00"/>
    <type id="highway.steps" priority="1" numLanes="1" speed="1.39" allow="pedestrian" oneway="1" width="2.00"/>
    <type id="highway.tertiary" priority="6" numLanes="1" speed="22.22" disallow="tram rail_urban rail rail_electric ship" oneway="0"/>
    <type id="highway.tertiary_link" priority="5" numLanes="1" speed="22.22" disallow="tram rail_urban rail rail_electric ship" oneway="0"/>
    <type id="highway.track" priority="1" numLanes="1" speed="5.56" disallow="tram rail_urban rail rail_electric ship" oneway="0"/>
    <type id="highway.trunk" priority="11" numLanes="2" speed="27.78" disallow="tram rail_urban rail rail_electric bicycle pedestrian ship" oneway="0"/>
    <type id="highway.trunk_link" priority="10" numLanes="1" speed="22.22" disallow="tram rail_urban rail rail_electric bicycle pedestrian ship" oneway="0"/>
    <type id="highway.unclassified" priority="5" numLanes="1" speed="13.89" disallow="tram rail_urban rail rail_electric ship" oneway="0"/>
    <type id="highway.unsurfaced" priority="1" numLanes="1" speed="8.33" disallow="tram rail_urban rail rail_electric ship" oneway="0"/>
    <type id="railway.light_rail" priority="15" numLanes="1" speed="27.78" allow="rail_urban" oneway="1"/>
    <type id="railway.preserved" priority="15" numLanes="1" speed="27.78" allow="rail" oneway="1"/>
    <type id="railway.rail" priority="15" numLanes="1" speed="83.33" allow="rail rail_electric" oneway="1"/>
    <type id="railway.subway" priority="15" numLanes="1" speed="27.78" allow="rail_urban" oneway="1"/>
    <type id="railway.tram" priority="15" numLanes="1" speed="13.89" allow="tram" oneway="1"/>

    <edge id=":104198595_0" function="internal">
        <lane id=":104198595_0_0" index="0" allow="delivery bicycle pedestrian" speed="5.56" length="9.46" shape="993.35,329.62 987.62,322.09"/>
    </edge>
    <edge id=":104198595_1" function="internal">
        <lane id=":104198595_1_0" index="0" disallow="tram rail_urban rail rail_electric ship" speed="9.73" length="10.37" shape="993.35,329.62 992.18,327.34 992.00,325.03 992.81,322.67 994.60,320.27"/>
    </edge>
    <edge id=":104198595_2" function="internal">
        <lane id=":104198595_2_0" index="0" allow="delivery bicycle pedestrian" speed="5.56" length="4.82" shape="993.35,329.62 993.28,328.13 993.70,327.31 994.61,327.15 996.01,327.66"/>
    </edge>
    <edge id=":104198595_3" function="internal">
        <lane id=":104198595_3_0" index="0" allow="delivery bicycle pedestrian" speed="9.73" length="5.71" shape="997.00,322.54 995.93,323.92 995.41,325.23 995.43,326.48 996.01,327.66"/>
    </edge>
    <edge id=":104198595_4" function="internal">
        <lane id=":104198595_4_0" index="0" allow="delivery bicycle pedestrian" speed="9.73" length="11.11" shape="997.00,322.54 994.56,324.47 992.18,325.04 989.87,324.25 987.62,322.09"/>
    </edge>
    <edge id=":104198595_5" function="internal">
        <lane id=":104198595_5_0" index="0" disallow="tram rail_urban rail rail_electric ship" speed="13.89" length="4.82" shape="997.00,322.54 995.55,322.87 994.67,322.60 994.35,321.74 994.60,320.27"/>
    </edge>
    <edge id=":104198595_6" function="internal">
        <lane id=":104198595_6_0" index="0" disallow="tram rail_urban rail rail_electric ship" speed="9.73" length="5.19" shape="990.22,320.06 991.27,321.07 992.35,321.44 993.46,321.17 994.60,320.27"/>
    </edge>
    <edge id=":104198595_7" function="internal">
        <lane id=":104198595_7_0" index="0" allow="delivery bicycle pedestrian" speed="5.56" length="9.54" shape="990.22,320.06 996.01,327.66"/>
    </edge>
    <edge id=":104198595_8" function="internal">
        <lane id=":104198595_8_0" index="0" allow="delivery bicycle pedestrian" speed="5.56" length="4.82" shape="990.22,320.06 990.33,321.55 989.94,322.38 989.03,322.56 987.62,322.09"/>
    </edge>
    <edge id=":104507077_0" function="internal">
        <lane id=":104507077_0_0" index="0" disallow="tram rail_urban rail rail_electric ship" speed="25.00" length="11.49" shape="1203.49,891.74 1200.71,893.17 1198.45,894.94 1196.72,897.07 1195.52,899.54"/>
    </edge>
    <edge id=":104507077_1" function="internal">
        <lane id=":104507077_1_0" index="0" disallow="tram rail_urban rail rail_electric ship" speed="27.78" length="14.44" shape="1203.49,891.74 1199.42,893.32 1196.57,894.20 1193.65,894.87 1189.39,895.81"/>
        <lane id=":104507077_1_1" index="1" disallow="tram rail_urban rail rail_electric ship" speed="27.78" length="14.44" shape="1202.23,888.69 1198.32,890.21 1195.56,891.05 1192.75,891.69 1188.64,892.60"/>
    </edge>
    <edge id=":104507077_3" function="internal">
        <lane id=":104507077_3_0" index="0" allow="bicycle" speed="16.67" length="3.86" width="1.00" shape="1202.23,888.69 1199.99,889.04 1198.61,888.27"/>
    </edge>
    <edge id=":104507077_4" function="internal">
        <lane id=":104507077_4_0" index="0" disallow="tram rail_urban rail rail_electric ship" speed="27.78" length="2.41" shape="1202.23,888.69 1200.78,888.40 1200.08,887.79"/>
    </edge>
    <edge id=":104507077_18" function="internal">
        <lane id=":104507077_18_0" index="0" speed="16.67" length="6.82" width="1.00" shape="1198.61,888.27 1198.23,888.06 1196.96,885.74 1196.17,882.08"/>
    </edge>
    <edge id=":104507077_19" function="internal">
        <lane id=":104507077_19_0" index="0" speed="27.78" length="2.41" shape="1200.08,887.79 1200.15,886.87 1200.98,885.64"/>
    </edge>
    <edge id=":104507077_5" function="internal">
        <lane id=":104507077_5_0" index="0" disallow="tram rail_urban rail rail_electric ship" speed="16.67" length="3.08" shape="1197.26,881.90 1197.49,882.55 1197.98,882.88 1198.72,882.89 1199.73,882.58"/>
    </edge>
    <edge id=":104507077_6" function="internal">
        <lane id=":104507077_6_0" index="0" disallow="tram rail_urban rail rail_electric ship" speed="13.89" length="17.84" shape="1197.26,881.90 1197.48,886.08 1197.25,890.81 1196.58,895.50 1195.52,899.54"/>
    </edge>
    <edge id=":104507077_7" function="internal">
        <lane id=":104507077_7_0" index="0" disallow="tram rail_urban rail rail_electric ship" speed="16.67" length="3.84" shape="1197.26,881.90 1197.12,885.73"/>
    </edge>
    <edge id=":104507077_8" function="internal">
        <lane id=":104507077_8_0" index="0" allow="bicycle" speed="5.56" length="0.80" width="1.00" shape="1197.26,881.90 1197.06,882.35 1196.81,882.53"/>
    </edge>
    <edge id=":104507077_20" function="internal">
        <lane id=":104507077_20_0" index="0" speed="16.67" length="11.48" shape="1197.12,885.73 1195.63,888.79 1192.80,891.08 1188.64,892.60"/>
    </edge>
    <edge id=":104507077_21" function="internal">
        <lane id=":104507077_21_0" index="0" speed="5.56" length="0.80" width="1.00" shape="1196.81,882.53 1196.51,882.44 1196.17,882.08"/>
    </edge>
    <edge id=":104507077_9" function="internal">
        <lane id=":104507077_9_0" index="0" allow="bicycle" speed="16.67" length="10.25" width="1.00" shape="1187.14,886.17 1191.18,885.10 1194.03,884.07 1195.70,883.06 1196.17,882.08"/>
    </edge>
    <edge id=":104507077_10" function="internal">
        <lane id=":104507077_10_0" index="0" disallow="tram rail_urban rail rail_electric ship" speed="27.78" length="13.39" shape="1187.14,886.17 1190.94,885.33 1193.55,884.75 1196.10,883.98 1199.73,882.58"/>
        <lane id=":104507077_10_1" index="1" disallow="tram rail_urban rail rail_electric ship" speed="27.78" length="13.39" shape="1187.89,889.39 1191.84,888.51 1194.56,887.90 1197.21,887.10 1200.98,885.64"/>
    </edge>
    <edge id=":104507077_12" function="internal">
        <lane id=":104507077_12_0" index="0" disallow="tram rail_urban rail rail_electric ship" speed="25.00" length="6.67" shape="1187.89,889.39 1192.96,888.95 1194.36,889.68"/>
    </edge>
    <edge id=":104507077_13" function="internal">
        <lane id=":104507077_13_0" index="0" disallow="tram rail_urban rail rail_electric ship" speed="27.78" length="2.41" shape="1187.89,889.39 1189.28,889.91 1189.87,890.62"/>
    </edge>
    <edge id=":104507077_22" function="internal">
        <lane id=":104507077_22_0" index="0" speed="25.00" length="11.05" shape="1194.36,889.68 1195.92,890.50 1196.77,894.03 1195.52,899.54"/>
    </edge>
    <edge id=":104507077_23" function="internal">
        <lane id=":104507077_23_0" index="0" speed="27.78" length="2.41" shape="1189.87,890.62 1189.65,891.51 1188.64,892.60"/>
    </edge>
    <edge id=":104507077_14" function="internal">
        <lane id=":104507077_14_0" index="0" disallow="tram rail_urban rail rail_electric ship" speed="25.00" length="5.57" shape="1192.41,898.44 1192.70,896.91 1192.30,895.97 1191.19,895.60 1189.39,895.81"/>
    </edge>
    <edge id=":104507077_15" function="internal">
        <lane id=":104507077_15_0" index="0" allow="bicycle" speed="13.89" length="16.91" width="1.00" shape="1192.41,898.44 1193.79,894.60 1195.15,890.36 1196.08,886.07 1196.17,882.08"/>
    </edge>
    <edge id=":104507077_16" function="internal">
        <lane id=":104507077_16_0" index="0" disallow="tram rail_urban rail rail_electric ship" speed="25.00" length="7.62" shape="1192.41,898.44 1194.39,893.57 1195.53,891.51"/>
    </edge>
    <edge id=":104507077_17" function="internal">
        <lane id=":104507077_17_0" index="0" disallow="tram rail_urban rail rail_electric ship" speed="22.22" length="2.31" shape="1192.41,898.44 1193.60,897.55 1194.42,897.45"/>
    </edge>
    <edge id=":104507077_24" function="internal">
        <lane id=":104507077_24_0" index="0" speed="25.00" length="8.15" shape="1195.53,891.51 1196.48,889.81 1198.68,887.16 1200.98,885.64"/>
    </edge>
    <edge id=":104507077_25" function="internal">
        <lane id=":104507077_25_0" index="0" speed="22.22" length="2.51" shape="1194.42,897.45 1194.52,897.44 1195.15,898.10 1195.52,899.54"/>
    </edge>
    <edge id=":104507928_0" function="internal">
        <lane id=":104507928_0_0" index="0" disallow="tram rail_urban rail rail_electric ship" speed="27.78" length="1.51" shape="641.71,841.61 641.46,841.35 641.29,841.17 641.11,841.00 640.82,840.79"/>
        <lane id=":104507928_0_1" index="1" disallow="tram rail_urban rail rail_electric ship" speed="27.78" length="1.51" shape="644.03,839.26 643.65,838.88 643.39,838.61 643.11,838.38 642.68,838.06"/>
    </edge>
    <edge id=":104507928_2" function="internal">
        <lane id=":104507928_2_0" index="0" disallow="tram rail_urban rail rail_electric ship" speed="25.00" length="0.61" shape="639.43,843.91 639.30,843.79 639.21,843.70 639.12,843.63 638.97,843.52"/>
    </edge>
    <edge id=":104507936_0" function="internal">
        <lane id=":104507936_0_0" index="0" disallow="tram rail_urban rail rail_electric ship" speed="22.22" length="0.17" shape="629.75,883.91 629.59,883.99"/>
    </edge>
    <edge id=":104507936_1" function="internal">
        <lane id=":104507936_1_0" index="0" disallow="tram rail_urban rail rail_electric ship" speed="22.22" length="2.41" shape="629.75,883.91 628.26,883.85 627.47,883.36"/>
    </edge>
    <edge id=":104507936_4" function="internal">
        <lane id=":104507936_4_0" index="0" speed="22.22" length="2.41" shape="627.47,883.36 627.40,882.44 628.03,881.09"/>
    </edge>
    <edge id=":104507936_2" function="internal">
        <lane id=":104507936_2_0" index="0" disallow="tram rail_urban rail rail_electric ship" speed="22.22" length="0.15" shape="628.15,881.01 628.03,881.09"/>
    </edge>
    <edge id=":104507936_3" function="internal">
        <lane id=":104507936_3_0" index="0" disallow="tram rail_urban rail rail_electric ship" speed="22.22" length="2.41" shape="628.15,881.01 629.62,881.22 630.36,881.78"/>
    </edge>
    <edge id=":104507936_5" function="internal">
        <lane id=":104507936_5_0" index="0" speed="22.22" length="2.41" shape="630.36,881.78 630.34,882.70 629.59,883.99"/>
    </edge>
    <edge id=":104548419_0" function="internal">
        <lane id=":104548419_0_0" index="0" allow="delivery bicycle pedestrian" speed="9.73" length="5.05" shape="1209.83,249.83 1209.27,248.56 1208.45,247.78 1207.35,247.51 1205.97,247.74"/>
    </edge>
    <edge id=":104548419_1" function="internal">
        <lane id=":104548419_1_0" index="0" disallow="tram rail_urban rail rail_electric ship" speed="13.89" length="6.42" shape="1209.83,249.83 1208.16,243.63"/>
    </edge>
    <edge id=":104548419_2" function="internal">
        <lane id=":104548419_2_0" index="0" allow="delivery bicycle pedestrian" speed="9.73" length="5.47" shape="1209.83,249.83 1209.44,246.99 1210.01,244.69 1210.16,244.51"/>
    </edge>
    <edge id=":104548419_3" function="internal">
        <lane id=":104548419_3_0" index="0" disallow="tram rail_urban rail rail_electric ship" speed="13.89" length="2.41" shape="1209.83,249.83 1210.30,248.42 1210.98,247.80"/>
    </edge>
    <edge id=":104548419_16" function="internal">
        <lane id=":104548419_16_0" index="0" speed="9.73" length="4.84" shape="1210.16,244.51 1211.51,242.92 1213.97,241.69"/>
    </edge>
    <edge id=":104548419_17" function="internal">
        <lane id=":104548419_17_0" index="0" speed="13.89" length="2.41" shape="1210.98,247.80 1211.89,247.98 1213.01,248.95"/>
    </edge>
    <edge id=":104548419_4" function="internal">
        <lane id=":104548419_4_0" index="0" disallow="tram rail_urban rail rail_electric ship" speed="9.73" length="5.17" shape="1215.00,244.82 1213.80,245.43 1213.07,246.32 1212.81,247.50 1213.01,248.95"/>
    </edge>
    <edge id=":104548419_5" function="internal">
        <lane id=":104548419_5_0" index="0" allow="delivery bicycle pedestrian" speed="5.56" length="9.49" shape="1215.00,244.82 1205.97,247.74"/>
    </edge>
    <edge id=":104548419_6" function="internal">
        <lane id=":104548419_6_0" index="0" disallow="tram rail_urban rail rail_electric ship" speed="9.73" length="7.80" shape="1215.00,244.82 1212.30,245.49 1210.26,245.52 1208.88,244.90 1208.16,243.63"/>
    </edge>
    <edge id=":104548419_7" function="internal">
        <lane id=":104548419_7_0" index="0" allow="delivery bicycle pedestrian" speed="5.56" length="4.82" shape="1215.00,244.82 1213.57,244.42 1212.92,243.77 1213.05,242.86 1213.97,241.69"/>
    </edge>
    <edge id=":104548419_8" function="internal">
        <lane id=":104548419_8_0" index="0" allow="delivery bicycle pedestrian" speed="9.73" length="3.12" shape="1211.36,242.84 1211.74,243.11 1212.40,242.74 1213.20,242.13 1213.97,241.69"/>
    </edge>
    <edge id=":104548419_9" function="internal">
        <lane id=":104548419_9_0" index="0" disallow="tram rail_urban rail rail_electric ship" speed="13.89" length="6.33" shape="1211.36,242.84 1213.01,248.95"/>
    </edge>
    <edge id=":104548419_10" function="internal">
        <lane id=":104548419_10_0" index="0" allow="delivery bicycle pedestrian" speed="9.73" length="3.00" shape="1211.36,242.84 1211.30,244.25 1210.38,245.54"/>
    </edge>
    <edge id=":104548419_11" function="internal">
        <lane id=":104548419_11_0" index="0" disallow="tram rail_urban rail rail_electric ship" speed="13.89" length="2.41" shape="1211.36,242.84 1210.86,244.24 1210.16,244.84"/>
    </edge>
    <edge id=":104548419_18" function="internal">
        <lane id=":104548419_18_0" index="0" speed="9.73" length="4.95" shape="1210.38,245.54 1208.60,246.70 1205.97,247.74"/>
    </edge>
    <edge id=":104548419_19" function="internal">
        <lane id=":104548419_19_0" index="0" speed="13.89" length="2.41" shape="1210.16,244.84 1209.26,244.63 1208.16,243.63"/>
    </edge>
    <edge id=":104548419_12" function="internal">
        <lane id=":104548419_12_0" index="0" disallow="tram rail_urban rail rail_electric ship" speed="9.73" length="3.55" shape="1204.97,244.60 1205.91,244.45 1207.01,244.36 1207.90,244.15 1208.16,243.63"/>
    </edge>
    <edge id=":104548419_13" function="internal">
        <lane id=":104548419_13_0" index="0" allow="delivery bicycle pedestrian" speed="5.56" length="9.46" shape="1204.97,244.60 1213.97,241.69"/>
    </edge>
    <edge id=":104548419_14" function="internal">
        <lane id=":104548419_14_0" index="0" disallow="tram rail_urban rail rail_electric ship" speed="9.73" length="10.52" shape="1204.97,244.60 1207.83,244.12 1210.12,244.69 1211.85,246.29 1213.01,248.95"/>
    </edge>
    <edge id=":104548419_15" function="internal">
        <lane id=":104548419_15_0" index="0" allow="delivery bicycle pedestrian" speed="5.56" length="4.82" shape="1204.97,244.60 1206.40,245.01 1207.05,245.67 1206.90,246.58 1205.97,247.74"/>
    </edge>
    <edge id=":104548430_0" function="internal">
        <lane id=":104548430_0_0" index="0" disallow="tram rail_urban rail rail_electric ship" speed="13.89" length="3.46" shape="1221.81,280.77 1221.98,281.68 1222.22,282.70 1222.59,283.49 1223.18,283.69"/>
    </edge>
    <edge id=":104548430_1" function="internal">
        <lane id=":104548430_1_0" index="0" disallow="tram rail_urban rail rail_electric ship" speed="13.89" length="2.67" shape="1221.81,280.77 1221.29,282.17 1220.58,282.76 1220.33,282.70"/>
    </edge>
    <edge id=":104548430_4" function="internal">
        <lane id=":104548430_4_0" index="0" speed="13.89" length="2.15" shape="1220.33,282.70 1219.69,282.55 1218.60,281.54"/>
    </edge>
    <edge id=":104548430_2" function="internal">
        <lane id=":104548430_2_0" index="0" disallow="tram rail_urban rail rail_electric ship" speed="13.89" length="5.25" shape="1216.53,285.74 1217.73,285.14 1218.47,284.24 1218.76,283.04 1218.60,281.54"/>
    </edge>
    <edge id=":104548430_3" function="internal">
        <lane id=":104548430_3_0" index="0" disallow="tram rail_urban rail rail_electric ship" speed="13.89" length="6.95" shape="1216.53,285.74 1223.18,283.69"/>
    </edge>
    <edge id=":104548441_0" function="internal">
        <lane id=":104548441_0_0" index="0" disallow="tram rail_urban rail rail_electric ship" speed="13.89" length="5.02" shape="1228.93,311.27 1228.36,310.02 1227.52,309.26 1226.42,308.99 1225.06,309.21"/>
    </edge>
    <edge id=":104548441_1" function="internal">
        <lane id=":104548441_1_0" index="0" disallow="tram rail_urban rail rail_electric ship" speed="13.89" length="1.93" shape="1228.93,311.27 1229.37,309.85 1229.70,309.55"/>
    </edge>
    <edge id=":104548441_4" function="internal">
        <lane id=":104548441_4_0" index="0" speed="13.89" length="2.89" shape="1229.70,309.55 1230.05,309.22 1230.96,309.38 1232.10,310.33"/>
    </edge>
    <edge id=":104548441_2" function="internal">
        <lane id=":104548441_2_0" index="0" disallow="tram rail_urban rail rail_electric ship" speed="13.89" length="3.29" shape="1230.33,307.56 1232.10,310.33"/>
    </edge>
    <edge id=":104548441_3" function="internal">
        <lane id=":104548441_3_0" index="0" disallow="tram rail_urban rail rail_electric ship" speed="13.89" length="5.52" shape="1230.33,307.56 1225.06,309.21"/>
    </edge>
    <edge id=":104548449_0" function="internal">
        <lane id=":104548449_0_0" index="0" allow="delivery bicycle pedestrian" speed="9.73" length="5.02" shape="1241.03,350.77 1240.46,349.51 1239.63,348.75 1238.53,348.47 1237.17,348.69"/>
    </edge>
    <edge id=":104548449_1" function="internal">
        <lane id=":104548449_1_0" index="0" disallow="tram rail_urban rail rail_electric ship" speed="13.89" length="9.63" shape="1241.03,350.77 1238.26,341.54"/>
    </edge>
    <edge id=":104548449_2" function="internal">
        <lane id=":104548449_2_0" index="0" allow="delivery bicycle pedestrian" speed="9.73" length="5.21" shape="1241.03,350.77 1240.63,347.96 1241.21,345.66"/>
    </edge>
    <edge id=":104548449_3" function="internal">
        <lane id=":104548449_3_0" index="0" disallow="tram rail_urban rail rail_electric ship" speed="13.89" length="2.41" shape="1241.03,350.77 1241.48,349.35 1242.15,348.72"/>
    </edge>
    <edge id=":104548449_16" function="internal">
        <lane id=":104548449_16_0" index="0" speed="9.73" length="5.25" shape="1241.21,345.66 1242.78,343.85 1245.33,342.55"/>
    </edge>
    <edge id=":104548449_17" function="internal">
        <lane id=":104548449_17_0" index="0" speed="13.89" length="2.41" shape="1242.15,348.72 1243.06,348.88 1244.20,349.84"/>
    </edge>
    <edge id=":104548449_4" function="internal">
        <lane id=":104548449_4_0" index="0" disallow="tram rail_urban rail rail_electric ship" speed="9.73" length="5.32" shape="1246.40,345.67 1245.10,346.34 1244.30,347.25 1244.00,348.42 1244.20,349.84"/>
    </edge>
    <edge id=":104548449_5" function="internal">
        <lane id=":104548449_5_0" index="0" allow="delivery bicycle pedestrian" speed="5.56" length="9.71" shape="1246.40,345.67 1237.17,348.69"/>
    </edge>
    <edge id=":104548449_6" function="internal">
        <lane id=":104548449_6_0" index="0" disallow="tram rail_urban rail rail_electric ship" speed="9.73" length="10.49" shape="1246.40,345.67 1243.57,346.22 1241.26,345.71 1239.50,344.15 1238.26,341.54"/>
    </edge>
    <edge id=":104548449_7" function="internal">
        <lane id=":104548449_7_0" index="0" allow="delivery bicycle pedestrian" speed="5.56" length="4.82" shape="1246.40,345.67 1244.96,345.30 1244.30,344.65 1244.42,343.74 1245.33,342.55"/>
    </edge>
    <edge id=":104548449_8" function="internal">
        <lane id=":104548449_8_0" index="0" allow="delivery bicycle pedestrian" speed="9.73" length="5.04" shape="1241.41,340.57 1242.01,341.82 1242.86,342.57 1243.96,342.82 1245.33,342.55"/>
    </edge>
    <edge id=":104548449_9" function="internal">
        <lane id=":104548449_9_0" index="0" disallow="tram rail_urban rail rail_electric ship" speed="13.89" length="9.68" shape="1241.41,340.57 1244.20,349.84"/>
    </edge>
    <edge id=":104548449_10" function="internal">
        <lane id=":104548449_10_0" index="0" allow="delivery bicycle pedestrian" speed="9.73" length="5.39" shape="1241.41,340.57 1241.87,343.41 1241.31,345.71 1241.22,345.82"/>
    </edge>
    <edge id=":104548449_11" function="internal">
        <lane id=":104548449_11_0" index="0" disallow="tram rail_urban rail rail_electric ship" speed="13.89" length="2.41" shape="1241.41,340.57 1240.99,342.00 1240.32,342.63"/>
    </edge>
    <edge id=":104548449_18" function="internal">
        <lane id=":104548449_18_0" index="0" speed="9.73" length="5.06" shape="1241.22,345.82 1239.75,347.47 1237.17,348.69"/>
    </edge>
    <edge id=":104548449_19" function="internal">
        <lane id=":104548449_19_0" index="0" speed="13.89" length="2.41" shape="1240.32,342.63 1239.41,342.48 1238.26,341.54"/>
    </edge>
    <edge id=":104548449_12" function="internal">
        <lane id=":104548449_12_0" index="0" disallow="tram rail_urban rail rail_electric ship" speed="9.73" length="5.12" shape="1236.20,345.53 1237.46,344.94 1238.22,344.07 1238.49,342.94 1238.26,341.54"/>
    </edge>
    <edge id=":104548449_13" function="internal">
        <lane id=":104548449_13_0" index="0" allow="delivery bicycle pedestrian" speed="5.56" length="9.60" shape="1236.20,345.53 1245.33,342.55"/>
    </edge>
    <edge id=":104548449_14" function="internal">
        <lane id=":104548449_14_0" index="0" disallow="tram rail_urban rail rail_electric ship" speed="9.73" length="10.39" shape="1236.20,345.53 1239.02,345.09 1241.29,345.66 1243.02,347.24 1244.20,349.84"/>
    </edge>
    <edge id=":104548449_15" function="internal">
        <lane id=":104548449_15_0" index="0" allow="delivery bicycle pedestrian" speed="5.56" length="4.82" shape="1236.20,345.53 1237.63,345.96 1238.26,346.63 1238.11,347.54 1237.17,348.69"/>
    </edge>
    <edge id=":104548454_0" function="internal">
        <lane id=":104548454_0_0" index="0" disallow="tram rail_urban rail rail_electric ship" speed="13.89" length="4.82" shape="1251.61,375.19 1251.17,376.61 1250.49,377.23 1249.59,377.07 1248.45,376.11"/>
    </edge>
    <edge id=":104580895_0" function="internal">
        <lane id=":104580895_0_0" index="0" disallow="tram rail_urban rail rail_electric ship" speed="27.78" length="9.63" shape="561.68,763.53 554.72,756.78"/>
        <lane id=":104580895_0_1" index="1" disallow="tram rail_urban rail rail_electric ship" speed="27.78" length="9.63" shape="563.93,761.11 557.06,754.46"/>
    </edge>
    <edge id=":104580895_2" function="internal">
        <lane id=":104580895_2_0" index="0" disallow="tram rail_urban rail rail_electric ship" speed="20.84" length="7.90" shape="563.93,761.11 562.01,759.05 560.95,757.25 560.76,755.71 561.44,754.43"/>
    </edge>
    <edge id=":104580895_3" function="internal">
        <lane id=":104580895_3_0" index="0" disallow="tram rail_urban rail rail_electric ship" speed="20.84" length="7.90" shape="563.81,756.72 562.56,757.45 561.01,757.31 559.18,756.31 557.06,754.46"/>
    </edge>
    <edge id=":104580895_4" function="internal">
        <lane id=":104580895_4_0" index="0" disallow="tram rail_urban rail rail_electric ship" speed="13.89" length="4.82" shape="563.81,756.72 562.36,757.04 561.48,756.76 561.18,755.89 561.44,754.43"/>
    </edge>
    <edge id=":104580909_0" function="internal">
        <lane id=":104580909_0_0" index="0" disallow="tram rail_urban rail rail_electric ship" speed="9.73" length="5.02" shape="599.05,724.78 597.94,723.96 596.85,723.69 595.75,723.98 594.66,724.82"/>
    </edge>
    <edge id=":104580909_1" function="internal">
        <lane id=":104580909_1_0" index="0" allow="delivery bicycle pedestrian" speed="5.56" length="9.58" shape="599.05,724.78 592.21,718.07"/>
    </edge>
    <edge id=":104580909_2" function="internal">
        <lane id=":104580909_2_0" index="0" disallow="tram rail_urban rail rail_electric ship" speed="9.73" length="10.40" shape="599.05,724.78 597.34,722.51 596.74,720.23 597.26,717.92 598.90,715.60"/>
    </edge>
    <edge id=":104580909_3" function="internal">