<edges>
<edge id="e_2_1_2_2" from="(2,1)" to="(2,2)" type="d" />
<edge id="e_3_1_3_2" from="(3,1)" to="(3,2)" type="d" />
<edge id="e_4_1_4_2" from="(4,1)" to="(4,2)" type="d" />
<edge id="e_5_1_5_2" from="(5,1)" to="(5,2)" type="d" />
<edge id="e_6_1_6_2" from="(6,1)" to="(6,2)" type="d" />
<edge id="e_1_2_2_2" from="(1,2)" to="(2,2)" type="d" />
<edge id="e_2_2_2_3" from="(2,2)" to="(2,3)" type="d" />
<edge id="e_2_2_3_2" from="(2,2)" to="(3,2)" type="d" />
<edge id="e_2_2_2_1" from="(2,2)" to="(2,1)" type="d" />
<edge id="e_2_2_1_2" from="(2,2)" to="(1,2)" type="d" />
<edge id="e_3_2_3_3" from="(3,2)" to="(3,3)" type="d" />
<edge id="e_3_2_4_2" from="(3,2)" to="(4,2)" type="d" />
<edge id="e_3_2_3_1" from="(3,2)" to="(3,1)" type="d" />
<edge id="e_3_2_2_2" from="(3,2)" to="(2,2)" type="d" />
<edge id="e_4_2_4_3" from="(4,2)" to="(4,3)" type="d" />
<edge id="e_4_2_5_2" from="(4,2)" to="(5,2)" type="d" />
<edge id="e_4_2_4_1" from="(4,2)" to="(4,1)" type="d" />
<edge id="e_4_2_3_2" from="(4,2)" to="(3,2)" type="d" />
<edge id="e_5_2_5_3" from="(5,2)" to="(5,3)" type="d" />
<edge id="e_5_2_6_2" from="(5,2)" to="(6,2)" type="d" />
<edge id="e_5_2_5_1" from="(5,2)" to="(5,1)" type="d" />
<edge id="e_5_2_4_2" from="(5,2)" to="(4,2)" type="d" />
<edge id="e_6_2_6_3" from="(6,2)" to="(6,3)" type="d" />
<edge id="e_6_2_7_2" from="(6,2)" to="(7,2)" type="d" />
<edge id="e_6_2_6_1" from="(6,2)" to="(6,1)" type="d" />
<edge id="e_6_2_5_2" from="(6,2)" to="(5,2)" type="d" />
<edge id="e_7_2_6_2" from="(7,2)" to="(6,2)" type="d" />
<edge id="e_2_3_2_2" from="(2,3)" to="(2,2)" type="d" />
<edge id="e_3_3_3_2" from="(3,3)" to="(3,2)" type="d" />
<edge id="e_4_3_4_2" from="(4,3)" to="(4,2)" type="d" />
<edge id="e_5_3_5_2" from="(5,3)" to="(5,2)" type="d" />
<edge id="e_6_3_6_2" from="(6,3)" to="(6,2)" type="d" />
</edges>